/*---------------------------------------------------------------------------*\
  =========                 |
  \\      /  F ield         | OpenFOAM: The Open Source CFD Toolbox
   \\    /   O peration     | Website:  https://openfoam.org
    \\  /    A nd           | Version:  12
     \\/     M anipulation  |
\*---------------------------------------------------------------------------*/
Build  : 12-cc05c1b03c38
Exec   : foamRun
Date   : Oct 11 2024
Time   : 06:08:45
Host   : "DESKTOP-KBPC6IC"
PID    : 13045
I/O    : uncollated
Case   : /home/as/openfoam/OpenFOAM-12/tutorials/film/rivuletPanel
nProcs : 1
sigFpe : Enabling floating point exception trapping (FOAM_SIGFPE).
fileModificationChecking : Monitoring run-time modified files using timeStampMaster (fileModificationSkew 10)
allowSystemOperations : Allowing user-supplied system call operations

// * * * * * * * * * * * * * * * * * * * * * * * * * * * * * * * * * * * * * //
Create time

Create mesh for time = 0

Selecting solver film
Selecting thermodynamics package 
{
    type            heRhoThermo;
    mixture         pureMixture;
    properties      liquid;
    energy          sensibleInternalEnergy;
}

--> FOAM Warning : 
    From function const Foam::HashTable<Foam::List<int>, Foam::word>& Foam::polyBoundaryMesh::groupPatchIndices() const
    in file meshes/polyMesh/polyBoundaryMesh/polyBoundaryMesh.C at line 506
    Removing patchGroup 'empty' which clashes with patch 4 of the same name.
The filmSurface patch is not defined
Selecting surfaceTensionModel constant
Selecting turbulence model type laminar
Selecting laminar stress model Stokes
Selecting thermophysical transport type laminar
Selecting default laminar thermophysical transport model unityLewisFourier

PIMPLE: No convergence criteria found


PIMPLE: No corrector convergence criteria found
        Calculations will do 2 corrections


PIMPLE: Operating solver in transient mode with 2 outer correctors



Starting time loop

Courant Number mean: 2.5e-06 max: 0.0008999999928
deltaT = 0.000119760479
Time = 0.00011976s

PIMPLE: Iteration 1
diagonal:  Solving for alpha, Initial residual = 0, Final residual = 0, No Iterations 0
DILUPBiCGStab:  Solving for Ux, Initial residual = 1, Final residual = 1.377709546e-17, No Iterations 1
DILUPBiCGStab:  Solving for Uy, Initial residual = 1, Final residual = 9.485532542e-17, No Iterations 1
DILUPBiCGStab:  Solving for e, Initial residual = 1, Final residual = 2.639712407e-19, No Iterations 1
DILUPBiCGStab:  Solving for alpha, Initial residual = 0.06601122565, Final residual = 1.397721261e-17, No Iterations 1
time step continuity errors : sum local = 1.343395287e-14, global = 5.757408351e-15
PIMPLE: Iteration 2
diagonal:  Solving for alpha, Initial residual = 0, Final residual = 0, No Iterations 0
DILUPBiCGStab:  Solving for Ux, Initial residual = 0.3641010862, Final residual = 4.812716024e-17, No Iterations 1
DILUPBiCGStab:  Solving for Uy, Initial residual = 0.0007815703042, Final residual = 9.875471718e-20, No Iterations 1
DILUPBiCGStab:  Solving for e, Initial residual = 0.002233950621, Final residual = 3.412116299e-19, No Iterations 1
DILUPBiCGStab:  Solving for alpha, Initial residual = 0.01312677395, Final residual = 2.932762587e-18, No Iterations 1
time step continuity errors : sum local = 1.114054715e-14, global = 1.662768024e-16, cumulative = 1.662768024e-16
ExecutionTime = 0.824916 s  ClockTime = 1 s

Courant Number mean: 5.573142203e-06 max: 0.001760951914
deltaT = 0.0001430233059
Time = 0.000262784s

PIMPLE: Iteration 1
diagonal:  Solving for alpha, Initial residual = 0, Final residual = 0, No Iterations 0
DILUPBiCGStab:  Solving for Ux, Initial residual = 0.5003094866, Final residual = 9.91450564e-17, No Iterations 1
DILUPBiCGStab:  Solving for Uy, Initial residual = 0.001974716376, Final residual = 1.728552437e-19, No Iterations 1
DILUPBiCGStab:  Solving for e, Initial residual = 0.002210568344, Final residual = 2.211291604e-19, No Iterations 1
DILUPBiCGStab:  Solving for alpha, Initial residual = 0.03083909738, Final residual = 2.007662043e-18, No Iterations 1
time step continuity errors : sum local = 1.107465247e-14, global = 9.443502377e-16
PIMPLE: Iteration 2
diagonal:  Solving for alpha, Initial residual = 0, Final residual = 0, No Iterations 0
DILUPBiCGStab:  Solving for Ux, Initial residual = 0.1384898377, Final residual = 3.03637005e-17, No Iterations 1
DILUPBiCGStab:  Solving for Uy, Initial residual = 3.872375487e-05, Final residual = 8.227954705e-21, No Iterations 1
DILUPBiCGStab:  Solving for e, Initial residual = 0.0006044537464, Final residual = 6.946370825e-20, No Iterations 1
DILUPBiCGStab:  Solving for alpha, Initial residual = 0.003588264563, Final residual = 1.71696187e-19, No Iterations 1
time step continuity errors : sum local = 9.899893888e-15, global = -3.046120845e-16, cumulative = -1.383352821e-16
ExecutionTime = 1.149061 s  ClockTime = 1 s

Courant Number mean: 9.829865254e-06 max: 0.002963884282
deltaT = 0.0001716279671
Time = 0.000434412s

PIMPLE: Iteration 1
diagonal:  Solving for alpha, Initial residual = 0, Final residual = 0, No Iterations 0
DILUPBiCGStab:  Solving for Ux, Initial residual = 0.2402422951, Final residual = 4.267312937e-17, No Iterations 1
DILUPBiCGStab:  Solving for Uy, Initial residual = 0.0006768191393, Final residual = 7.281111394e-20, No Iterations 1
DILUPBiCGStab:  Solving for e, Initial residual = 0.0009709959965, Final residual = 9.460667411e-20, No Iterations 1
DILUPBiCGStab:  Solving for alpha, Initial residual = 0.009864335892, Final residual = 6.52650798e-19, No Iterations 1
time step continuity errors : sum local = 1.31177858e-14, global = 1.20202815e-15
PIMPLE: Iteration 2
diagonal:  Solving for alpha, Initial residual = 0, Final residual = 0, No Iterations 0
DILUPBiCGStab:  Solving for Ux, Initial residual = 0.06235336706, Final residual = 6.367988974e-18, No Iterations 1
DILUPBiCGStab:  Solving for Uy, Initial residual = 2.734651811e-05, Final residual = 2.880671311e-21, No Iterations 1
DILUPBiCGStab:  Solving for e, Initial residual = 0.0001383418478, Final residual = 3.073870038e-20, No Iterations 1
DILUPBiCGStab:  Solving for alpha, Initial residual = 6.666035164e-05, Final residual = 4.931628079e-21, No Iterations 1
time step continuity errors : sum local = 1.316811337e-14, global = -1.005200114e-16, cumulative = -2.388552935e-16
ExecutionTime = 1.478467 s  ClockTime = 2 s

Courant Number mean: 1.414096451e-05 max: 0.004063834811
deltaT = 0.0002059535605
Time = 0.000640365s

PIMPLE: Iteration 1
diagonal:  Solving for alpha, Initial residual = 0, Final residual = 0, No Iterations 0
DILUPBiCGStab:  Solving for Ux, Initial residual = 0.1761018285, Final residual = 1.909942085e-17, No Iterations 1
DILUPBiCGStab:  Solving for Uy, Initial residual = 0.0003910783464, Final residual = 4.796909705e-20, No Iterations 1
DILUPBiCGStab:  Solving for e, Initial residual = 0.0006276796313, Final residual = 7.906728294e-20, No Iterations 1
DILUPBiCGStab:  Solving for alpha, Initial residual = 0.002740586564, Final residual = 1.641499643e-19, No Iterations 1
time step continuity errors : sum local = 1.098682411e-14, global = -3.937927777e-17
PIMPLE: Iteration 2
diagonal:  Solving for alpha, Initial residual = 0, Final residual = 0, No Iterations 0
DILUPBiCGStab:  Solving for Ux, Initial residual = 0.05168111441, Final residual = 5.770181966e-18, No Iterations 1
DILUPBiCGStab:  Solving for Uy, Initial residual = 1.330445046e-05, Final residual = 2.990237712e-21, No Iterations 1
DILUPBiCGStab:  Solving for e, Initial residual = 3.087627591e-05, Final residual = 3.944872478e-21, No Iterations 1
DILUPBiCGStab:  Solving for alpha, Initial residual = 0.0001550282981, Final residual = 3.384742333e-20, No Iterations 1
time step continuity errors : sum local = 1.067210032e-14, global = -7.062418926e-16, cumulative = -9.450971861e-16
ExecutionTime = 1.79913 s  ClockTime = 2 s

Courant Number mean: 1.855497889e-05 max: 0.005150583042
deltaT = 0.0002450586669
Time = 0.000885424s

PIMPLE: Iteration 1
diagonal:  Solving for alpha, Initial residual = 0, Final residual = 0, No Iterations 0
DILUPBiCGStab:  Solving for Ux, Initial residual = 0.2033263965, Final residual = 3.190762537e-17, No Iterations 1
DILUPBiCGStab:  Solving for Uy, Initial residual = 0.0002766223285, Final residual = 3.56735391e-20, No Iterations 1
DILUPBiCGStab:  Solving for e, Initial residual = 0.0004507435644, Final residual = 1.013398841e-19, No Iterations 1
DILUPBiCGStab:  Solving for alpha, Initial residual = 0.002201126507, Final residual = 1.514141325e-19, No Iterations 1
time step continuity errors : sum local = 1.384797402e-14, global = -8.572555889e-16
PIMPLE: Iteration 2
diagonal:  Solving for alpha, Initial residual = 0, Final residual = 0, No Iterations 0
DILUPBiCGStab:  Solving for Ux, Initial residual = 0.03715451049, Final residual = 4.228879318e-18, No Iterations 1
DILUPBiCGStab:  Solving for Uy, Initial residual = 1.323006797e-05, Final residual = 2.661331622e-21, No Iterations 1
DILUPBiCGStab:  Solving for e, Initial residual = 2.097140307e-05, Final residual = 4.71457105e-21, No Iterations 1
DILUPBiCGStab:  Solving for alpha, Initial residual = 0.0001587684543, Final residual = 9.496389509e-21, No Iterations 1
time step continuity errors : sum local = 1.098750393e-14, global = 1.588554759e-15, cumulative = 6.434575732e-16
ExecutionTime = 2.119988 s  ClockTime = 2 s

Courant Number mean: 2.335907549e-05 max: 0.006367570876
deltaT = 0.0002940704003
Time = 0.00117949s

PIMPLE: Iteration 1
diagonal:  Solving for alpha, Initial residual = 0, Final residual = 0, No Iterations 0
DILUPBiCGStab:  Solving for Ux, Initial residual = 0.1351224273, Final residual = 2.929066797e-17, No Iterations 1
DILUPBiCGStab:  Solving for Uy, Initial residual = 0.0002182417142, Final residual = 2.749074238e-20, No Iterations 1
DILUPBiCGStab:  Solving for e, Initial residual = 0.0003482032095, Final residual = 4.050959666e-20, No Iterations 1
DILUPBiCGStab:  Solving for alpha, Initial residual = 0.001842361091, Final residual = 2.923475604e-19, No Iterations 1
time step continuity errors : sum local = 1.279128038e-14, global = -2.617066541e-15
PIMPLE: Iteration 2
diagonal:  Solving for alpha, Initial residual = 0, Final residual = 0, No Iterations 0
DILUPBiCGStab:  Solving for Ux, Initial residual = 0.01916627622, Final residual = 1.949071612e-18, No Iterations 1
DILUPBiCGStab:  Solving for Uy, Initial residual = 1.263429771e-05, Final residual = 2.339197788e-21, No Iterations 1
DILUPBiCGStab:  Solving for e, Initial residual = 1.533651252e-05, Final residual = 1.965734196e-21, No Iterations 1
DILUPBiCGStab:  Solving for alpha, Initial residual = 0.0001427735438, Final residual = 8.432454041e-21, No Iterations 1
time step continuity errors : sum local = 1.280800983e-14, global = -2.892131257e-15, cumulative = -2.248673684e-15
ExecutionTime = 2.435734 s  ClockTime = 3 s

Courant Number mean: 2.935546645e-05 max: 0.007912839387
deltaT = 0.0003485278819
Time = 0.00152802s

PIMPLE: Iteration 1
diagonal:  Solving for alpha, Initial residual = 0, Final residual = 0, No Iterations 0
DILUPBiCGStab:  Solving for Ux, Initial residual = 0.0821911752, Final residual = 9.577822868e-18, No Iterations 1
DILUPBiCGStab:  Solving for Uy, Initial residual = 0.0001816085051, Final residual = 2.010629722e-20, No Iterations 1
DILUPBiCGStab:  Solving for e, Initial residual = 0.0002816193957, Final residual = 7.515831275e-20, No Iterations 1
DILUPBiCGStab:  Solving for alpha, Initial residual = 0.001936178, Final residual = 1.566398455e-19, No Iterations 1
time step continuity errors : sum local = 1.288956121e-14, global = 1.741832573e-15
PIMPLE: Iteration 2
diagonal:  Solving for alpha, Initial residual = 0, Final residual = 0, No Iterations 0
DILUPBiCGStab:  Solving for Ux, Initial residual = 0.01209894038, Final residual = 1.25979515e-18, No Iterations 1
DILUPBiCGStab:  Solving for Uy, Initial residual = 1.456764275e-05, Final residual = 1.613045981e-21, No Iterations 1
DILUPBiCGStab:  Solving for e, Initial residual = 1.432146744e-05, Final residual = 3.427562459e-21, No Iterations 1
DILUPBiCGStab:  Solving for alpha, Initial residual = 0.0001469685961, Final residual = 3.100227287e-20, No Iterations 1
time step continuity errors : sum local = 1.279678884e-14, global = 6.196339415e-16, cumulative = -1.629039742e-15
ExecutionTime = 2.760478 s  ClockTime = 3 s

Courant Number mean: 3.613496866e-05 max: 0.009659409152
deltaT = 0.0004104883942
Time = 0.00193851s

PIMPLE: Iteration 1
diagonal:  Solving for alpha, Initial residual = 0, Final residual = 0, No Iterations 0
DILUPBiCGStab:  Solving for Ux, Initial residual = 0.07323216985, Final residual = 7.957979142e-18, No Iterations 1
DILUPBiCGStab:  Solving for Uy, Initial residual = 0.0001573344114, Final residual = 1.843768278e-20, No Iterations 1
DILUPBiCGStab:  Solving for e, Initial residual = 0.0002318965259, Final residual = 3.131195488e-20, No Iterations 1
DILUPBiCGStab:  Solving for alpha, Initial residual = 0.001721144478, Final residual = 1.197247409e-19, No Iterations 1
time step continuity errors : sum local = 1.335037738e-14, global = -1.372468654e-15
PIMPLE: Iteration 2
diagonal:  Solving for alpha, Initial residual = 0, Final residual = 0, No Iterations 0
DILUPBiCGStab:  Solving for Ux, Initial residual = 0.007700095019, Final residual = 1.746612286e-18, No Iterations 1
DILUPBiCGStab:  Solving for Uy, Initial residual = 1.385295455e-05, Final residual = 2.372436146e-21, No Iterations 1
DILUPBiCGStab:  Solving for e, Initial residual = 1.142302475e-05, Final residual = 1.292951708e-21, No Iterations 1
DILUPBiCGStab:  Solving for alpha, Initial residual = 0.0001264726169, Final residual = 7.765828299e-21, No Iterations 1
time step continuity errors : sum local = 1.248197902e-14, global = 1.553981376e-15, cumulative = -7.505836606e-17
ExecutionTime = 3.087474 s  ClockTime = 3 s

Courant Number mean: 4.403432429e-05 max: 0.01165730256
deltaT = 0.0004881483607
Time = 0.00242666s

PIMPLE: Iteration 1
diagonal:  Solving for alpha, Initial residual = 0, Final residual = 0, No Iterations 0
DILUPBiCGStab:  Solving for Ux, Initial residual = 0.044780987, Final residual = 1.022970379e-17, No Iterations 1
DILUPBiCGStab:  Solving for Uy, Initial residual = 0.0001395383577, Final residual = 1.414491486e-20, No Iterations 1
DILUPBiCGStab:  Solving for e, Initial residual = 0.0001959261999, Final residual = 2.103353191e-20, No Iterations 1
DILUPBiCGStab:  Solving for alpha, Initial residual = 0.001543558304, Final residual = 8.935714021e-20, No Iterations 1
time step continuity errors : sum local = 1.125114241e-14, global = -2.14534496e-15
PIMPLE: Iteration 2
diagonal:  Solving for alpha, Initial residual = 0, Final residual = 0, No Iterations 0
DILUPBiCGStab:  Solving for Ux, Initial residual = 0.005468913625, Final residual = 5.872825353e-19, No Iterations 1
DILUPBiCGStab:  Solving for Uy, Initial residual = 1.292819456e-05, Final residual = 1.788746171e-21, No Iterations 1
DILUPBiCGStab:  Solving for e, Initial residual = 9.074610171e-06, Final residual = 1.118267954e-21, No Iterations 1
DILUPBiCGStab:  Solving for alpha, Initial residual = 0.0001104020732, Final residual = 2.342159365e-20, No Iterations 1
time step continuity errors : sum local = 1.040520267e-14, global = 2.152800429e-16, cumulative = 1.402216768e-16
ExecutionTime = 3.40889 s  ClockTime = 4 s

Courant Number mean: 5.416603539e-05 max: 0.01426959696
deltaT = 0.0005857780328
Time = 0.00301244s

PIMPLE: Iteration 1
diagonal:  Solving for alpha, Initial residual = 0, Final residual = 0, No Iterations 0
DILUPBiCGStab:  Solving for Ux, Initial residual = 0.0371040988, Final residual = 4.578643963e-18, No Iterations 1
DILUPBiCGStab:  Solving for Uy, Initial residual = 0.00012387463, Final residual = 2.897971577e-20, No Iterations 1
DILUPBiCGStab:  Solving for e, Initial residual = 0.0001684194405, Final residual = 1.806581936e-20, No Iterations 1
DILUPBiCGStab:  Solving for alpha, Initial residual = 0.001285944047, Final residual = 7.754637144e-20, No Iterations 1
time step continuity errors : sum local = 1.067042412e-14, global = 1.391794455e-15
PIMPLE: Iteration 2
diagonal:  Solving for alpha, Initial residual = 0, Final residual = 0, No Iterations 0
DILUPBiCGStab:  Solving for Ux, Initial residual = 0.004409628103, Final residual = 6.031368271e-19, No Iterations 1
DILUPBiCGStab:  Solving for Uy, Initial residual = 1.113460723e-05, Final residual = 3.976490503e-21, No Iterations 1
DILUPBiCGStab:  Solving for e, Initial residual = 6.703223128e-06, Final residual = 7.338399391e-22, No Iterations 1
DILUPBiCGStab:  Solving for alpha, Initial residual = 9.184739924e-05, Final residual = 3.264720479e-21, No Iterations 1
time step continuity errors : sum local = 1.20584258e-14, global = -1.370803675e-15, cumulative = -1.230581998e-15
ExecutionTime = 3.735942 s  ClockTime = 4 s

Courant Number mean: 6.717582563e-05 max: 0.01778368657
deltaT = 0.000679502518
Time = 0.00369194s

PIMPLE: Iteration 1
diagonal:  Solving for alpha, Initial residual = 0, Final residual = 0, No Iterations 0
DILUPBiCGStab:  Solving for Ux, Initial residual = 0.03236972533, Final residual = 3.950316657e-18, No Iterations 1
DILUPBiCGStab:  Solving for Uy, Initial residual = 0.0001068159546, Final residual = 1.098751291e-20, No Iterations 1
DILUPBiCGStab:  Solving for e, Initial residual = 0.0001467281984, Final residual = 3.40812645e-20, No Iterations 1
DILUPBiCGStab:  Solving for alpha, Initial residual = 0.001197369761, Final residual = 7.013121015e-20, No Iterations 1
time step continuity errors : sum local = 1.286605809e-14, global = -2.42755852e-16
PIMPLE: Iteration 2
diagonal:  Solving for alpha, Initial residual = 0, Final residual = 0, No Iterations 0
DILUPBiCGStab:  Solving for Ux, Initial residual = 0.00377132234, Final residual = 4.699195082e-19, No Iterations 1
DILUPBiCGStab:  Solving for Uy, Initial residual = 1.06881234e-05, Final residual = 1.036420887e-21, No Iterations 1
DILUPBiCGStab:  Solving for e, Initial residual = 5.575566263e-06, Final residual = 5.694556781e-22, No Iterations 1
DILUPBiCGStab:  Solving for alpha, Initial residual = 8.039055014e-05, Final residual = 5.474040502e-21, No Iterations 1
time step continuity errors : sum local = 1.27603979e-14, global = 2.056701939e-15, cumulative = 8.261199413e-16
ExecutionTime = 4.061769 s  ClockTime = 4 s

Courant Number mean: 7.983808575e-05 max: 0.02130056312
deltaT = 0.0008154030216
Time = 0.00450734s

PIMPLE: Iteration 1
diagonal:  Solving for alpha, Initial residual = 0, Final residual = 0, No Iterations 0
DILUPBiCGStab:  Solving for Ux, Initial residual = 0.03078064716, Final residual = 5.597444489e-18, No Iterations 1
DILUPBiCGStab:  Solving for Uy, Initial residual = 9.579307201e-05, Final residual = 2.129719629e-20, No Iterations 1
DILUPBiCGStab:  Solving for e, Initial residual = 0.0001286534601, Final residual = 2.087837274e-20, No Iterations 1
DILUPBiCGStab:  Solving for alpha, Initial residual = 0.001174100466, Final residual = 8.018491451e-20, No Iterations 1
time step continuity errors : sum local = 1.233368803e-14, global = 2.182956289e-17
PIMPLE: Iteration 2
diagonal:  Solving for alpha, Initial residual = 0, Final residual = 0, No Iterations 0
DILUPBiCGStab:  Solving for Ux, Initial residual = 0.00398157421, Final residual = 4.367795393e-19, No Iterations 1
DILUPBiCGStab:  Solving for Uy, Initial residual = 1.069659969e-05, Final residual = 1.416637686e-21, No Iterations 1
DILUPBiCGStab:  Solving for e, Initial residual = 4.843688466e-06, Final residual = 1.128037893e-21, No Iterations 1
DILUPBiCGStab:  Solving for alpha, Initial residual = 7.929274151e-05, Final residual = 5.515522553e-21, No Iterations 1
time step continuity errors : sum local = 1.264601519e-14, global = -2.184110361e-17, cumulative = 8.042788377e-16
ExecutionTime = 4.376441 s  ClockTime = 5 s

Courant Number mean: 9.841914881e-05 max: 0.02665876007
deltaT = 0.0009682910882
Time = 0.00547563s

PIMPLE: Iteration 1
diagonal:  Solving for alpha, Initial residual = 0, Final residual = 0, No Iterations 0
DILUPBiCGStab:  Solving for Ux, Initial residual = 0.02900886511, Final residual = 2.722973499e-18, No Iterations 1
DILUPBiCGStab:  Solving for Uy, Initial residual = 8.336784339e-05, Final residual = 8.667402116e-21, No Iterations 1
DILUPBiCGStab:  Solving for e, Initial residual = 0.0001139196236, Final residual = 3.14511541e-20, No Iterations 1
DILUPBiCGStab:  Solving for alpha, Initial residual = 0.001251810075, Final residual = 8.21625234e-20, No Iterations 1
time step continuity errors : sum local = 1.197975477e-14, global = 1.264410598e-15
PIMPLE: Iteration 2
diagonal:  Solving for alpha, Initial residual = 0, Final residual = 0, No Iterations 0
DILUPBiCGStab:  Solving for Ux, Initial residual = 0.002982787527, Final residual = 3.399553414e-19, No Iterations 1
DILUPBiCGStab:  Solving for Uy, Initial residual = 1.157581996e-05, Final residual = 2.725103777e-21, No Iterations 1
DILUPBiCGStab:  Solving for e, Initial residual = 4.52100708e-06, Final residual = 4.710855188e-22, No Iterations 1
DILUPBiCGStab:  Solving for alpha, Initial residual = 8.350100644e-05, Final residual = 4.201164164e-21, No Iterations 1
time step continuity errors : sum local = 1.100168458e-14, global = 7.934937836e-16, cumulative = 1.597772621e-15
ExecutionTime = 4.694228 s  ClockTime = 5 s

Courant Number mean: 0.0001194681208 max: 0.03306148808
deltaT = 0.001117258948
Time = 0.00659289s

PIMPLE: Iteration 1
diagonal:  Solving for alpha, Initial residual = 0, Final residual = 0, No Iterations 0
DILUPBiCGStab:  Solving for Ux, Initial residual = 0.02134105688, Final residual = 2.033154104e-18, No Iterations 1
DILUPBiCGStab:  Solving for Uy, Initial residual = 7.239992133e-05, Final residual = 8.192504373e-21, No Iterations 1
DILUPBiCGStab:  Solving for e, Initial residual = 0.000100557568, Final residual = 1.069535332e-20, No Iterations 1
DILUPBiCGStab:  Solving for alpha, Initial residual = 0.001215762507, Final residual = 6.759276106e-20, No Iterations 1
time step continuity errors : sum local = 1.183688076e-14, global = -7.423827398e-16
PIMPLE: Iteration 2
diagonal:  Solving for alpha, Initial residual = 0, Final residual = 0, No Iterations 0
DILUPBiCGStab:  Solving for Ux, Initial residual = 0.002476847299, Final residual = 2.405650572e-19, No Iterations 1
DILUPBiCGStab:  Solving for Uy, Initial residual = 1.159571266e-05, Final residual = 1.156103327e-21, No Iterations 1
DILUPBiCGStab:  Solving for e, Initial residual = 3.956535906e-06, Final residual = 8.82678489e-22, No Iterations 1
DILUPBiCGStab:  Solving for alpha, Initial residual = 7.470246832e-05, Final residual = 1.604335183e-20, No Iterations 1
time step continuity errors : sum local = 1.218937188e-14, global = 2.479194468e-16, cumulative = 1.845692068e-15
ExecutionTime = 5.014559 s  ClockTime = 5 s

Courant Number mean: 0.0001400126479 max: 0.03984058022
deltaT = 0.001340710737
Time = 0.0079336s

PIMPLE: Iteration 1
diagonal:  Solving for alpha, Initial residual = 0, Final residual = 0, No Iterations 0
DILUPBiCGStab:  Solving for Ux, Initial residual = 0.02343719552, Final residual = 3.004984075e-18, No Iterations 1
DILUPBiCGStab:  Solving for Uy, Initial residual = 6.584686191e-05, Final residual = 1.404895622e-20, No Iterations 1
DILUPBiCGStab:  Solving for e, Initial residual = 8.858458674e-05, Final residual = 1.621453862e-20, No Iterations 1
DILUPBiCGStab:  Solving for alpha, Initial residual = 0.001196340211, Final residual = 6.149057967e-20, No Iterations 1
time step continuity errors : sum local = 1.257785144e-14, global = 1.654980093e-16
PIMPLE: Iteration 2
diagonal:  Solving for alpha, Initial residual = 0, Final residual = 0, No Iterations 0
DILUPBiCGStab:  Solving for Ux, Initial residual = 0.003239484675, Final residual = 6.602426031e-19, No Iterations 1
DILUPBiCGStab:  Solving for Uy, Initial residual = 1.169370612e-05, Final residual = 2.551740669e-21, No Iterations 1
DILUPBiCGStab:  Solving for e, Initial residual = 3.510007844e-06, Final residual = 7.01490367e-22, No Iterations 1
DILUPBiCGStab:  Solving for alpha, Initial residual = 7.637660378e-05, Final residual = 3.165371952e-21, No Iterations 1
time step continuity errors : sum local = 1.192914644e-14, global = 2.501606107e-15, cumulative = 4.347298175e-15
ExecutionTime = 5.339749 s  ClockTime = 6 s

Courant Number mean: 0.0001711231295 max: 0.05008682309
deltaT = 0.00150829958
Time = 0.0094419s

PIMPLE: Iteration 1
diagonal:  Solving for alpha, Initial residual = 0, Final residual = 0, No Iterations 0
DILUPBiCGStab:  Solving for Ux, Initial residual = 0.02470173181, Final residual = 2.836039771e-18, No Iterations 1
DILUPBiCGStab:  Solving for Uy, Initial residual = 5.511280829e-05, Final residual = 1.070474922e-20, No Iterations 1
DILUPBiCGStab:  Solving for e, Initial residual = 7.898108288e-05, Final residual = 9.504774644e-21, No Iterations 1
DILUPBiCGStab:  Solving for alpha, Initial residual = 0.001240255255, Final residual = 2.616368932e-19, No Iterations 1
time step continuity errors : sum local = 1.060321217e-14, global = 9.995634119e-16
PIMPLE: Iteration 2
diagonal:  Solving for alpha, Initial residual = 0, Final residual = 0, No Iterations 0
DILUPBiCGStab:  Solving for Ux, Initial residual = 0.003115781865, Final residual = 4.821884595e-19, No Iterations 1
DILUPBiCGStab:  Solving for Uy, Initial residual = 1.226246025e-05, Final residual = 1.370669022e-21, No Iterations 1
DILUPBiCGStab:  Solving for e, Initial residual = 3.214382103e-06, Final residual = 3.458185058e-22, No Iterations 1
DILUPBiCGStab:  Solving for alpha, Initial residual = 6.815070587e-05, Final residual = 4.992110556e-21, No Iterations 1
time step continuity errors : sum local = 1.008635099e-14, global = 1.76953493e-16, cumulative = 4.524251668e-15
ExecutionTime = 5.662133 s  ClockTime = 6 s

Courant Number mean: 0.0001940622988 max: 0.05841533167
deltaT = 0.001759682843
Time = 0.0112016s

PIMPLE: Iteration 1
diagonal:  Solving for alpha, Initial residual = 0, Final residual = 0, No Iterations 0
DILUPBiCGStab:  Solving for Ux, Initial residual = 0.0301686323, Final residual = 4.557008134e-18, No Iterations 1
DILUPBiCGStab:  Solving for Uy, Initial residual = 5.264123214e-05, Final residual = 6.612757943e-21, No Iterations 1
DILUPBiCGStab:  Solving for e, Initial residual = 6.89297559e-05, Final residual = 9.267808638e-21, No Iterations 1
DILUPBiCGStab:  Solving for alpha, Initial residual = 0.001034781288, Final residual = 6.142483852e-20, No Iterations 1
time step continuity errors : sum local = 1.305270031e-14, global = -1.476198282e-15
PIMPLE: Iteration 2
diagonal:  Solving for alpha, Initial residual = 0, Final residual = 0, No Iterations 0
DILUPBiCGStab:  Solving for Ux, Initial residual = 0.003179869976, Final residual = 3.387109954e-19, No Iterations 1
DILUPBiCGStab:  Solving for Uy, Initial residual = 1.086672375e-05, Final residual = 1.13240487e-21, No Iterations 1
DILUPBiCGStab:  Solving for e, Initial residual = 2.477257133e-06, Final residual = 2.856215335e-22, No Iterations 1
DILUPBiCGStab:  Solving for alpha, Initial residual = 5.938920062e-05, Final residual = 9.039458947e-21, No Iterations 1
time step continuity errors : sum local = 1.273866389e-14, global = 1.864194726e-15, cumulative = 6.388446394e-15
ExecutionTime = 5.985798 s  ClockTime = 6 s

Courant Number mean: 0.0002289871433 max: 0.07107374947
deltaT = 0.001759682843
Time = 0.0129613s

PIMPLE: Iteration 1
diagonal:  Solving for alpha, Initial residual = 0, Final residual = 0, No Iterations 0
DILUPBiCGStab:  Solving for Ux, Initial residual = 0.03064650422, Final residual = 2.69388512e-18, No Iterations 1
DILUPBiCGStab:  Solving for Uy, Initial residual = 4.397358536e-05, Final residual = 4.858292532e-21, No Iterations 1
DILUPBiCGStab:  Solving for e, Initial residual = 6.131166699e-05, Final residual = 7.010701774e-21, No Iterations 1
DILUPBiCGStab:  Solving for alpha, Initial residual = 0.00182276185, Final residual = 1.309183134e-19, No Iterations 1
time step continuity errors : sum local = 1.473309912e-14, global = -2.52567423e-16
PIMPLE: Iteration 2
diagonal:  Solving for alpha, Initial residual = 0, Final residual = 0, No Iterations 0
DILUPBiCGStab:  Solving for Ux, Initial residual = 0.002809730844, Final residual = 5.882706016e-19, No Iterations 1
DILUPBiCGStab:  Solving for Uy, Initial residual = 2.089960505e-05, Final residual = 2.103422108e-21, No Iterations 1
DILUPBiCGStab:  Solving for e, Initial residual = 4.342631242e-06, Final residual = 4.719596183e-22, No Iterations 1
DILUPBiCGStab:  Solving for alpha, Initial residual = 7.792969313e-05, Final residual = 1.290439417e-20, No Iterations 1
time step continuity errors : sum local = 1.324581831e-14, global = -1.814728012e-15, cumulative = 4.573718382e-15
ExecutionTime = 6.301012 s  ClockTime = 7 s

Courant Number mean: 0.0002278414479 max: 0.07283612288
deltaT = 0.001759682843
Time = 0.014721s

PIMPLE: Iteration 1
diagonal:  Solving for alpha, Initial residual = 0, Final residual = 0, No Iterations 0
DILUPBiCGStab:  Solving for Ux, Initial residual = 0.0292448938, Final residual = 4.692253119e-18, No Iterations 1
DILUPBiCGStab:  Solving for Uy, Initial residual = 5.432703418e-05, Final residual = 1.201767013e-20, No Iterations 1
DILUPBiCGStab:  Solving for e, Initial residual = 5.170042317e-05, Final residual = 5.590544643e-21, No Iterations 1
DILUPBiCGStab:  Solving for alpha, Initial residual = 0.001417459477, Final residual = 2.400040926e-19, No Iterations 1
time step continuity errors : sum local = 1.337459783e-14, global = 1.760211376e-15
PIMPLE: Iteration 2
diagonal:  Solving for alpha, Initial residual = 0, Final residual = 0, No Iterations 0
DILUPBiCGStab:  Solving for Ux, Initial residual = 0.002607934525, Final residual = 2.648864909e-19, No Iterations 1
DILUPBiCGStab:  Solving for Uy, Initial residual = 1.794241894e-05, Final residual = 4.233401678e-21, No Iterations 1
DILUPBiCGStab:  Solving for e, Initial residual = 3.389732762e-06, Final residual = 4.38520438e-22, No Iterations 1
DILUPBiCGStab:  Solving for alpha, Initial residual = 4.689699032e-05, Final residual = 3.136065193e-21, No Iterations 1
time step continuity errors : sum local = 1.39929032e-14, global = -1.966570652e-16, cumulative = 4.377061317e-15
ExecutionTime = 6.61783 s  ClockTime = 7 s

Courant Number mean: 0.0002281480248 max: 0.07553653015
deltaT = 0.001759682843
Time = 0.0164806s

PIMPLE: Iteration 1
diagonal:  Solving for alpha, Initial residual = 0, Final residual = 0, No Iterations 0
DILUPBiCGStab:  Solving for Ux, Initial residual = 0.03251987907, Final residual = 4.732034696e-18, No Iterations 1
DILUPBiCGStab:  Solving for Uy, Initial residual = 6.120900877e-05, Final residual = 6.45202936e-21, No Iterations 1
DILUPBiCGStab:  Solving for e, Initial residual = 4.467471155e-05, Final residual = 8.585458233e-21, No Iterations 1
DILUPBiCGStab:  Solving for alpha, Initial residual = 0.0009727959496, Final residual = 6.84899379e-20, No Iterations 1
time step continuity errors : sum local = 1.326843479e-14, global = -2.484418894e-15
PIMPLE: Iteration 2
diagonal:  Solving for alpha, Initial residual = 0, Final residual = 0, No Iterations 0
DILUPBiCGStab:  Solving for Ux, Initial residual = 0.002354024535, Final residual = 5.411724652e-19, No Iterations 1
DILUPBiCGStab:  Solving for Uy, Initial residual = 1.377806502e-05, Final residual = 2.787297723e-21, No Iterations 1
DILUPBiCGStab:  Solving for e, Initial residual = 2.413626666e-06, Final residual = 2.988097898e-22, No Iterations 1
DILUPBiCGStab:  Solving for alpha, Initial residual = 2.510319831e-05, Final residual = 1.644688026e-21, No Iterations 1
time step continuity errors : sum local = 1.131562832e-14, global = -2.931651883e-15, cumulative = 1.445409434e-15
ExecutionTime = 6.933541 s  ClockTime = 7 s

Courant Number mean: 0.0002294282268 max: 0.07914772607
deltaT = 0.001759682843
Time = 0.0182403s

PIMPLE: Iteration 1
diagonal:  Solving for alpha, Initial residual = 0, Final residual = 0, No Iterations 0
DILUPBiCGStab:  Solving for Ux, Initial residual = 0.03153015152, Final residual = 6.246295255e-18, No Iterations 1
DILUPBiCGStab:  Solving for Uy, Initial residual = 6.331169515e-05, Final residual = 7.695555253e-21, No Iterations 1
DILUPBiCGStab:  Solving for e, Initial residual = 3.972700321e-05, Final residual = 4.294373169e-21, No Iterations 1
DILUPBiCGStab:  Solving for alpha, Initial residual = 0.0007322141978, Final residual = 4.112213327e-20, No Iterations 1
time step continuity errors : sum local = 1.165955365e-14, global = 1.746116748e-15
PIMPLE: Iteration 2
diagonal:  Solving for alpha, Initial residual = 0, Final residual = 0, No Iterations 0
DILUPBiCGStab:  Solving for Ux, Initial residual = 0.001864788925, Final residual = 1.725510546e-19, No Iterations 1
DILUPBiCGStab:  Solving for Uy, Initial residual = 1.093047951e-05, Final residual = 1.211752201e-21, No Iterations 1
DILUPBiCGStab:  Solving for e, Initial residual = 1.81198763e-06, Final residual = 1.746416029e-22, No Iterations 1
DILUPBiCGStab:  Solving for alpha, Initial residual = 1.652619213e-05, Final residual = 2.730223605e-21, No Iterations 1
time step continuity errors : sum local = 1.164825434e-14, global = 3.192763302e-15, cumulative = 4.638172736e-15
ExecutionTime = 7.253485 s  ClockTime = 8 s

Courant Number mean: 0.00023120581 max: 0.08376269962
deltaT = 0.001759682843
Time = 0.02s

PIMPLE: Iteration 1
diagonal:  Solving for alpha, Initial residual = 0, Final residual = 0, No Iterations 0
DILUPBiCGStab:  Solving for Ux, Initial residual = 0.02873764199, Final residual = 9.542209254e-18, No Iterations 1
DILUPBiCGStab:  Solving for Uy, Initial residual = 6.288576026e-05, Final residual = 1.326312911e-20, No Iterations 1
DILUPBiCGStab:  Solving for e, Initial residual = 3.616058897e-05, Final residual = 1.321703468e-20, No Iterations 1
DILUPBiCGStab:  Solving for alpha, Initial residual = 0.0006294219098, Final residual = 4.399253667e-20, No Iterations 1
time step continuity errors : sum local = 1.239741863e-14, global = 6.884241276e-16
PIMPLE: Iteration 2
diagonal:  Solving for alpha, Initial residual = 0, Final residual = 0, No Iterations 0
DILUPBiCGStab:  Solving for Ux, Initial residual = 0.001811080464, Final residual = 2.015398409e-19, No Iterations 1
DILUPBiCGStab:  Solving for Uy, Initial residual = 1.017349637e-05, Final residual = 9.523083737e-22, No Iterations 1
DILUPBiCGStab:  Solving for e, Initial residual = 1.590434797e-06, Final residual = 1.795138166e-22, No Iterations 1
DILUPBiCGStab:  Solving for alpha, Initial residual = 1.176085963e-05, Final residual = 8.350435621e-22, No Iterations 1
time step continuity errors : sum local = 1.036282959e-14, global = 1.390984503e-16, cumulative = 4.777271186e-15
ExecutionTime = 7.726608 s  ClockTime = 8 s

Courant Number mean: 0.0002331881163 max: 0.08863679747
deltaT = 0.002
Time = 0.022s

PIMPLE: Iteration 1
diagonal:  Solving for alpha, Initial residual = 0, Final residual = 0, No Iterations 0
DILUPBiCGStab:  Solving for Ux, Initial residual = 0.03439362676, Final residual = 7.72913379e-18, No Iterations 1
DILUPBiCGStab:  Solving for Uy, Initial residual = 6.302409384e-05, Final residual = 1.091820206e-20, No Iterations 1
DILUPBiCGStab:  Solving for e, Initial residual = 3.347448099e-05, Final residual = 4.865061642e-21, No Iterations 1
DILUPBiCGStab:  Solving for alpha, Initial residual = 0.0005612814951, Final residual = 3.604371851e-20, No Iterations 1
time step continuity errors : sum local = 1.249007751e-14, global = -2.425259786e-17
PIMPLE: Iteration 2
diagonal:  Solving for alpha, Initial residual = 0, Final residual = 0, No Iterations 0
DILUPBiCGStab:  Solving for Ux, Initial residual = 0.002699588076, Final residual = 5.813970459e-19, No Iterations 1
DILUPBiCGStab:  Solving for Uy, Initial residual = 8.254409692e-06, Final residual = 1.539337195e-21, No Iterations 1
DILUPBiCGStab:  Solving for e, Initial residual = 1.235286299e-06, Final residual = 1.159427043e-22, No Iterations 1
DILUPBiCGStab:  Solving for alpha, Initial residual = 1.391802446e-05, Final residual = 9.586193185e-22, No Iterations 1
time step continuity errors : sum local = 1.272212585e-14, global = 1.429724595e-15, cumulative = 6.206995781e-15
ExecutionTime = 8.053268 s  ClockTime = 8 s

Courant Number mean: 0.0002695677697 max: 0.1073572017
deltaT = 0.00225
Time = 0.02425s

PIMPLE: Iteration 1
diagonal:  Solving for alpha, Initial residual = 0, Final residual = 0, No Iterations 0
DILUPBiCGStab:  Solving for Ux, Initial residual = 0.05025862784, Final residual = 5.088091862e-18, No Iterations 1
DILUPBiCGStab:  Solving for Uy, Initial residual = 5.384995825e-05, Final residual = 4.863547058e-21, No Iterations 1
DILUPBiCGStab:  Solving for e, Initial residual = 3.240913474e-05, Final residual = 6.919383796e-21, No Iterations 1
DILUPBiCGStab:  Solving for alpha, Initial residual = 0.0006270750537, Final residual = 3.176936343e-20, No Iterations 1
time step continuity errors : sum local = 1.260207724e-14, global = 3.050502883e-15
PIMPLE: Iteration 2
diagonal:  Solving for alpha, Initial residual = 0, Final residual = 0, No Iterations 0
DILUPBiCGStab:  Solving for Ux, Initial residual = 0.004886978551, Final residual = 9.570075468e-19, No Iterations 1
DILUPBiCGStab:  Solving for Uy, Initial residual = 8.770369785e-06, Final residual = 1.005706444e-21, No Iterations 1
DILUPBiCGStab:  Solving for e, Initial residual = 1.205238495e-06, Final residual = 2.712224446e-22, No Iterations 1
DILUPBiCGStab:  Solving for alpha, Initial residual = 1.796634007e-05, Final residual = 1.449239174e-21, No Iterations 1
time step continuity errors : sum local = 1.311489477e-14, global = -9.372241252e-17, cumulative = 6.113273369e-15
ExecutionTime = 8.371592 s  ClockTime = 9 s

Courant Number mean: 0.000307810559 max: 0.1285674717
deltaT = 0.002625
Time = 0.026875s

PIMPLE: Iteration 1
diagonal:  Solving for alpha, Initial residual = 0, Final residual = 0, No Iterations 0
DILUPBiCGStab:  Solving for Ux, Initial residual = 0.08336367404, Final residual = 1.162123046e-17, No Iterations 1
DILUPBiCGStab:  Solving for Uy, Initial residual = 4.655073891e-05, Final residual = 4.832600608e-21, No Iterations 1
DILUPBiCGStab:  Solving for e, Initial residual = 3.108458501e-05, Final residual = 7.075746463e-21, No Iterations 1
DILUPBiCGStab:  Solving for alpha, Initial residual = 0.0007936034909, Final residual = 5.180956486e-20, No Iterations 1
time step continuity errors : sum local = 1.405616868e-14, global = -6.013157008e-16
PIMPLE: Iteration 2
diagonal:  Solving for alpha, Initial residual = 0, Final residual = 0, No Iterations 0
DILUPBiCGStab:  Solving for Ux, Initial residual = 0.003803212349, Final residual = 4.386016592e-19, No Iterations 1
DILUPBiCGStab:  Solving for Uy, Initial residual = 1.041700625e-05, Final residual = 1.250198015e-21, No Iterations 1
DILUPBiCGStab:  Solving for e, Initial residual = 1.376778395e-06, Final residual = 1.778505365e-22, No Iterations 1
DILUPBiCGStab:  Solving for alpha, Initial residual = 3.27671132e-05, Final residual = 1.517247325e-21, No Iterations 1
time step continuity errors : sum local = 1.477905163e-14, global = 5.105370453e-16, cumulative = 6.623810414e-15
ExecutionTime = 8.692886 s  ClockTime = 9 s

Courant Number mean: 0.0003646311035 max: 0.1604395139
deltaT = 0.002625
Time = 0.0295s

PIMPLE: Iteration 1
diagonal:  Solving for alpha, Initial residual = 0, Final residual = 0, No Iterations 0
DILUPBiCGStab:  Solving for Ux, Initial residual = 0.05669233985, Final residual = 6.055425695e-18, No Iterations 1
DILUPBiCGStab:  Solving for Uy, Initial residual = 3.698875372e-05, Final residual = 8.128826559e-21, No Iterations 1
DILUPBiCGStab:  Solving for e, Initial residual = 3.009848273e-05, Final residual = 7.722892003e-21, No Iterations 1
DILUPBiCGStab:  Solving for alpha, Initial residual = 0.0007770826408, Final residual = 5.075367958e-20, No Iterations 1
time step continuity errors : sum local = 1.26642479e-14, global = -2.645353266e-16
PIMPLE: Iteration 2
diagonal:  Solving for alpha, Initial residual = 0, Final residual = 0, No Iterations 0
DILUPBiCGStab:  Solving for Ux, Initial residual = 0.002776099249, Final residual = 3.179252171e-19, No Iterations 1
DILUPBiCGStab:  Solving for Uy, Initial residual = 1.120515403e-05, Final residual = 2.5982091e-21, No Iterations 1
DILUPBiCGStab:  Solving for e, Initial residual = 1.270077883e-06, Final residual = 2.876495345e-22, No Iterations 1
DILUPBiCGStab:  Solving for alpha, Initial residual = 2.482721525e-05, Final residual = 1.546677439e-21, No Iterations 1
time step continuity errors : sum local = 1.417059521e-14, global = 2.763433652e-15, cumulative = 9.387244067e-15
ExecutionTime = 9.023204 s  ClockTime = 9 s

Courant Number mean: 0.0003671253767 max: 0.1708056971
deltaT = 0.002625
Time = 0.032125s

PIMPLE: Iteration 1
diagonal:  Solving for alpha, Initial residual = 0, Final residual = 0, No Iterations 0
DILUPBiCGStab:  Solving for Ux, Initial residual = 0.0414013809, Final residual = 8.380319105e-18, No Iterations 1
DILUPBiCGStab:  Solving for Uy, Initial residual = 4.057504727e-05, Final residual = 4.395488938e-21, No Iterations 1
DILUPBiCGStab:  Solving for e, Initial residual = 2.742583339e-05, Final residual = 2.978726285e-21, No Iterations 1
DILUPBiCGStab:  Solving for alpha, Initial residual = 0.0007811992897, Final residual = 3.206021191e-20, No Iterations 1
time step continuity errors : sum local = 1.319229408e-14, global = -9.326567641e-16
PIMPLE: Iteration 2
diagonal:  Solving for alpha, Initial residual = 0, Final residual = 0, No Iterations 0
DILUPBiCGStab:  Solving for Ux, Initial residual = 0.002093571375, Final residual = 1.576714709e-19, No Iterations 1
DILUPBiCGStab:  Solving for Uy, Initial residual = 1.000869096e-05, Final residual = 9.439645508e-22, No Iterations 1
DILUPBiCGStab:  Solving for e, Initial residual = 1.085696551e-06, Final residual = 1.913891448e-22, No Iterations 1
DILUPBiCGStab:  Solving for alpha, Initial residual = 2.583331599e-05, Final residual = 1.627314276e-21, No Iterations 1
time step continuity errors : sum local = 1.165750202e-14, global = 6.415842613e-16, cumulative = 1.002882833e-14
ExecutionTime = 9.342559 s  ClockTime = 10 s

Courant Number mean: 0.0003708876233 max: 0.1815251851
deltaT = 0.002625
Time = 0.03475s

PIMPLE: Iteration 1
diagonal:  Solving for alpha, Initial residual = 0, Final residual = 0, No Iterations 0
DILUPBiCGStab:  Solving for Ux, Initial residual = 0.03382547958, Final residual = 4.521997415e-18, No Iterations 1
DILUPBiCGStab:  Solving for Uy, Initial residual = 4.425442186e-05, Final residual = 3.912330742e-21, No Iterations 1
DILUPBiCGStab:  Solving for e, Initial residual = 2.532109186e-05, Final residual = 2.881863058e-21, No Iterations 1
DILUPBiCGStab:  Solving for alpha, Initial residual = 0.0007635782622, Final residual = 1.560014987e-19, No Iterations 1
time step continuity errors : sum local = 1.373932141e-14, global = -9.273446188e-16
PIMPLE: Iteration 2
diagonal:  Solving for alpha, Initial residual = 0, Final residual = 0, No Iterations 0
DILUPBiCGStab:  Solving for Ux, Initial residual = 0.001513146011, Final residual = 3.07501054e-19, No Iterations 1
DILUPBiCGStab:  Solving for Uy, Initial residual = 9.960452186e-06, Final residual = 1.090286872e-21, No Iterations 1
DILUPBiCGStab:  Solving for e, Initial residual = 9.913822224e-07, Final residual = 1.249516319e-22, No Iterations 1
DILUPBiCGStab:  Solving for alpha, Initial residual = 3.061047057e-05, Final residual = 1.77859766e-21, No Iterations 1
time step continuity errors : sum local = 1.222556324e-14, global = 3.345999044e-16, cumulative = 1.036342823e-14
ExecutionTime = 9.66276 s  ClockTime = 10 s

Courant Number mean: 0.0003761074877 max: 0.1961926711
deltaT = 0.002625
Time = 0.037375s

PIMPLE: Iteration 1
diagonal:  Solving for alpha, Initial residual = 0, Final residual = 0, No Iterations 0
DILUPBiCGStab:  Solving for Ux, Initial residual = 0.02760844532, Final residual = 3.366891266e-18, No Iterations 1
DILUPBiCGStab:  Solving for Uy, Initial residual = 4.794943348e-05, Final residual = 5.067644296e-21, No Iterations 1
DILUPBiCGStab:  Solving for e, Initial residual = 2.343639166e-05, Final residual = 5.996891285e-21, No Iterations 1
DILUPBiCGStab:  Solving for alpha, Initial residual = 0.0008599864696, Final residual = 5.221057573e-20, No Iterations 1
time step continuity errors : sum local = 1.104729424e-14, global = 5.918193643e-16
PIMPLE: Iteration 2
diagonal:  Solving for alpha, Initial residual = 0, Final residual = 0, No Iterations 0
DILUPBiCGStab:  Solving for Ux, Initial residual = 0.001330502963, Final residual = 1.559805099e-19, No Iterations 1
DILUPBiCGStab:  Solving for Uy, Initial residual = 8.721861333e-06, Final residual = 9.695704865e-22, No Iterations 1
DILUPBiCGStab:  Solving for e, Initial residual = 8.274713461e-07, Final residual = 1.66348114e-22, No Iterations 1
DILUPBiCGStab:  Solving for alpha, Initial residual = 3.415656387e-05, Final residual = 1.057059203e-21, No Iterations 1
time step continuity errors : sum local = 1.148740598e-14, global = -1.496855006e-15, cumulative = 8.866573226e-15
ExecutionTime = 9.983587 s  ClockTime = 10 s

Courant Number mean: 0.0003829918353 max: 0.2108574164
deltaT = 0.0013125
Time = 0.0386875s

PIMPLE: Iteration 1
diagonal:  Solving for alpha, Initial residual = 0, Final residual = 0, No Iterations 0
DILUPBiCGStab:  Solving for Ux, Initial residual = 0.01779833347, Final residual = 3.788896537e-18, No Iterations 1
DILUPBiCGStab:  Solving for Uy, Initial residual = 4.657019079e-05, Final residual = 9.725202556e-21, No Iterations 1
DILUPBiCGStab:  Solving for e, Initial residual = 2.117751516e-05, Final residual = 4.57447351e-21, No Iterations 1
DILUPBiCGStab:  Solving for alpha, Initial residual = 0.0009711071454, Final residual = 6.054586888e-20, No Iterations 1
time step continuity errors : sum local = 1.167542388e-14, global = -1.275727971e-15
PIMPLE: Iteration 2
diagonal:  Solving for alpha, Initial residual = 0, Final residual = 0, No Iterations 0
DILUPBiCGStab:  Solving for Ux, Initial residual = 0.0008960963535, Final residual = 9.733113257e-20, No Iterations 1
DILUPBiCGStab:  Solving for Uy, Initial residual = 3.861612236e-05, Final residual = 3.755118882e-21, No Iterations 1
DILUPBiCGStab:  Solving for e, Initial residual = 3.848702116e-06, Final residual = 4.276880049e-22, No Iterations 1
DILUPBiCGStab:  Solving for alpha, Initial residual = 8.641079644e-06, Final residual = 5.844791344e-22, No Iterations 1
time step continuity errors : sum local = 1.387676884e-14, global = 2.318600947e-16, cumulative = 9.098433321e-15
ExecutionTime = 10.296652 s  ClockTime = 11 s

Courant Number mean: 0.0001913766601 max: 0.1070140193
deltaT = 0.0013125
Time = 0.04s

PIMPLE: Iteration 1
diagonal:  Solving for alpha, Initial residual = 0, Final residual = 0, No Iterations 0
DILUPBiCGStab:  Solving for Ux, Initial residual = 0.01825098831, Final residual = 1.912669627e-18, No Iterations 1
DILUPBiCGStab:  Solving for Uy, Initial residual = 7.816263785e-05, Final residual = 1.244841305e-20, No Iterations 1
DILUPBiCGStab:  Solving for e, Initial residual = 1.698331144e-05, Final residual = 2.064225864e-21, No Iterations 1
DILUPBiCGStab:  Solving for alpha, Initial residual = 0.0002730738383, Final residual = 6.041615922e-20, No Iterations 1
time step continuity errors : sum local = 1.208345553e-14, global = -1.705142394e-15
PIMPLE: Iteration 2
diagonal:  Solving for alpha, Initial residual = 0, Final residual = 0, No Iterations 0
DILUPBiCGStab:  Solving for Ux, Initial residual = 0.0003396358676, Final residual = 4.008245209e-20, No Iterations 1
DILUPBiCGStab:  Solving for Uy, Initial residual = 6.22188054e-06, Final residual = 6.695218727e-22, No Iterations 1
DILUPBiCGStab:  Solving for e, Initial residual = 6.012335157e-07, Final residual = 7.300187476e-23, No Iterations 1
DILUPBiCGStab:  Solving for alpha, Initial residual = 3.520319233e-06, Final residual = 2.192220557e-22, No Iterations 1
time step continuity errors : sum local = 1.188976208e-14, global = 4.564430996e-17, cumulative = 9.144077631e-15
ExecutionTime = 10.772984 s  ClockTime = 11 s

Courant Number mean: 0.0001944730249 max: 0.1108482166
deltaT = 0.001538461538
Time = 0.0415385s

PIMPLE: Iteration 1
diagonal:  Solving for alpha, Initial residual = 0, Final residual = 0, No Iterations 0
DILUPBiCGStab:  Solving for Ux, Initial residual = 0.02017621867, Final residual = 1.948218054e-18, No Iterations 1
DILUPBiCGStab:  Solving for Uy, Initial residual = 8.025251254e-05, Final residual = 9.754519443e-21, No Iterations 1
DILUPBiCGStab:  Solving for e, Initial residual = 1.681075782e-05, Final residual = 2.047905866e-21, No Iterations 1
DILUPBiCGStab:  Solving for alpha, Initial residual = 0.000338143056, Final residual = 2.284520728e-20, No Iterations 1
time step continuity errors : sum local = 1.176491574e-14, global = 1.211779988e-16
PIMPLE: Iteration 2
diagonal:  Solving for alpha, Initial residual = 0, Final residual = 0, No Iterations 0
DILUPBiCGStab:  Solving for Ux, Initial residual = 0.0003923340755, Final residual = 5.434717385e-20, No Iterations 1
DILUPBiCGStab:  Solving for Uy, Initial residual = 6.29692669e-06, Final residual = 6.581253332e-22, No Iterations 1
DILUPBiCGStab:  Solving for e, Initial residual = 5.93756375e-07, Final residual = 1.358775803e-22, No Iterations 1
DILUPBiCGStab:  Solving for alpha, Initial residual = 6.35682398e-06, Final residual = 4.879384883e-22, No Iterations 1
time step continuity errors : sum local = 1.19290026e-14, global = -1.330324987e-15, cumulative = 7.813752644e-15
ExecutionTime = 11.104434 s  ClockTime = 12 s

Courant Number mean: 0.000232776472 max: 0.1353382542
deltaT = 0.001846153846
Time = 0.0433846s

PIMPLE: Iteration 1
diagonal:  Solving for alpha, Initial residual = 0, Final residual = 0, No Iterations 0
DILUPBiCGStab:  Solving for Ux, Initial residual = 0.02250763867, Final residual = 2.495118275e-18, No Iterations 1
DILUPBiCGStab:  Solving for Uy, Initial residual = 7.789472478e-05, Final residual = 1.636728812e-20, No Iterations 1
DILUPBiCGStab:  Solving for e, Initial residual = 1.705421776e-05, Final residual = 1.727120654e-21, No Iterations 1
DILUPBiCGStab:  Solving for alpha, Initial residual = 0.0005966444673, Final residual = 1.320263226e-19, No Iterations 1
time step continuity errors : sum local = 1.165266203e-14, global = -7.409652273e-16
PIMPLE: Iteration 2
diagonal:  Solving for alpha, Initial residual = 0, Final residual = 0, No Iterations 0
DILUPBiCGStab:  Solving for Ux, Initial residual = 0.0006177987367, Final residual = 7.351681832e-20, No Iterations 1
DILUPBiCGStab:  Solving for Uy, Initial residual = 7.315568381e-06, Final residual = 1.201805011e-21, No Iterations 1
DILUPBiCGStab:  Solving for e, Initial residual = 6.672921653e-07, Final residual = 1.277310197e-22, No Iterations 1
DILUPBiCGStab:  Solving for alpha, Initial residual = 1.398819318e-05, Final residual = 2.676381388e-21, No Iterations 1
time step continuity errors : sum local = 1.43928581e-14, global = 9.318895277e-16, cumulative = 8.745642171e-15
ExecutionTime = 11.420718 s  ClockTime = 12 s

Courant Number mean: 0.0002865149768 max: 0.1689774337
deltaT = 0.002076923077
Time = 0.0454615s

PIMPLE: Iteration 1
diagonal:  Solving for alpha, Initial residual = 0, Final residual = 0, No Iterations 0
DILUPBiCGStab:  Solving for Ux, Initial residual = 0.02520450338, Final residual = 2.690432295e-18, No Iterations 1
DILUPBiCGStab:  Solving for Uy, Initial residual = 7.403585229e-05, Final residual = 8.181504106e-21, No Iterations 1
DILUPBiCGStab:  Solving for e, Initial residual = 1.726368932e-05, Final residual = 3.655696345e-21, No Iterations 1
DILUPBiCGStab:  Solving for alpha, Initial residual = 0.0007924832275, Final residual = 4.601347766e-20, No Iterations 1
time step continuity errors : sum local = 1.189686045e-14, global = 1.51746157e-16
PIMPLE: Iteration 2
diagonal:  Solving for alpha, Initial residual = 0, Final residual = 0, No Iterations 0
DILUPBiCGStab:  Solving for Ux, Initial residual = 0.0008454660665, Final residual = 8.474226005e-20, No Iterations 1
DILUPBiCGStab:  Solving for Uy, Initial residual = 8.276209547e-06, Final residual = 1.789829656e-21, No Iterations 1
DILUPBiCGStab:  Solving for e, Initial residual = 6.641418672e-07, Final residual = 9.313045129e-23, No Iterations 1
DILUPBiCGStab:  Solving for alpha, Initial residual = 2.396897169e-05, Final residual = 1.034743309e-21, No Iterations 1
time step continuity errors : sum local = 1.182194759e-14, global = 2.764112758e-16, cumulative = 9.022053447e-15
ExecutionTime = 11.740906 s  ClockTime = 12 s

Courant Number mean: 0.0003314943165 max: 0.1968098519
deltaT = 0.002076923077
Time = 0.0475385s

PIMPLE: Iteration 1
diagonal:  Solving for alpha, Initial residual = 0, Final residual = 0, No Iterations 0
DILUPBiCGStab:  Solving for Ux, Initial residual = 0.02832952784, Final residual = 3.704876371e-18, No Iterations 1
DILUPBiCGStab:  Solving for Uy, Initial residual = 6.858111045e-05, Final residual = 1.362660994e-20, No Iterations 1
DILUPBiCGStab:  Solving for e, Initial residual = 1.722808884e-05, Final residual = 1.906006993e-21, No Iterations 1
DILUPBiCGStab:  Solving for alpha, Initial residual = 0.0009612379998, Final residual = 6.453723657e-20, No Iterations 1
time step continuity errors : sum local = 1.311856471e-14, global = 1.455200841e-15
PIMPLE: Iteration 2
diagonal:  Solving for alpha, Initial residual = 0, Final residual = 0, No Iterations 0
DILUPBiCGStab:  Solving for Ux, Initial residual = 0.0009656611279, Final residual = 1.766435921e-19, No Iterations 1
DILUPBiCGStab:  Solving for Uy, Initial residual = 8.196050459e-06, Final residual = 7.911657587e-22, No Iterations 1
DILUPBiCGStab:  Solving for e, Initial residual = 6.070180111e-07, Final residual = 1.53773193e-22, No Iterations 1
DILUPBiCGStab:  Solving for alpha, Initial residual = 2.941253606e-05, Final residual = 1.517592043e-21, No Iterations 1
time step continuity errors : sum local = 1.244126071e-14, global = 1.27894865e-15, cumulative = 1.03010021e-14
ExecutionTime = 12.066413 s  ClockTime = 13 s

Courant Number mean: 0.0003407996321 max: 0.2020046281
deltaT = 0.00178021978
Time = 0.0493187s

PIMPLE: Iteration 1
diagonal:  Solving for alpha, Initial residual = 0, Final residual = 0, No Iterations 0
DILUPBiCGStab:  Solving for Ux, Initial residual = 0.02744685887, Final residual = 6.057325237e-18, No Iterations 1
DILUPBiCGStab:  Solving for Uy, Initial residual = 6.911912515e-05, Final residual = 1.310168986e-20, No Iterations 1
DILUPBiCGStab:  Solving for e, Initial residual = 1.645835746e-05, Final residual = 1.862613458e-21, No Iterations 1
DILUPBiCGStab:  Solving for alpha, Initial residual = 0.0008511828366, Final residual = 5.514814716e-20, No Iterations 1
time step continuity errors : sum local = 1.315948189e-14, global = -1.586469484e-15
PIMPLE: Iteration 2
diagonal:  Solving for alpha, Initial residual = 0, Final residual = 0, No Iterations 0
DILUPBiCGStab:  Solving for Ux, Initial residual = 0.001046537312, Final residual = 9.568700048e-20, No Iterations 1
DILUPBiCGStab:  Solving for Uy, Initial residual = 9.741285046e-06, Final residual = 2.136854968e-21, No Iterations 1
DILUPBiCGStab:  Solving for e, Initial residual = 7.812103645e-07, Final residual = 7.738154381e-23, No Iterations 1
DILUPBiCGStab:  Solving for alpha, Initial residual = 2.562332482e-05, Final residual = 5.412886396e-21, No Iterations 1
time step continuity errors : sum local = 1.41075854e-14, global = -4.457659819e-16, cumulative = 9.855236115e-15
ExecutionTime = 12.38487 s  ClockTime = 13 s

Courant Number mean: 0.0002991734663 max: 0.175865239
deltaT = 0.00178021978
Time = 0.0510989s

PIMPLE: Iteration 1
diagonal:  Solving for alpha, Initial residual = 0, Final residual = 0, No Iterations 0
DILUPBiCGStab:  Solving for Ux, Initial residual = 0.02872156976, Final residual = 2.194632999e-18, No Iterations 1
DILUPBiCGStab:  Solving for Uy, Initial residual = 8.173750384e-05, Final residual = 9.288694764e-21, No Iterations 1
DILUPBiCGStab:  Solving for e, Initial residual = 1.542351674e-05, Final residual = 3.33558192e-21, No Iterations 1
DILUPBiCGStab:  Solving for alpha, Initial residual = 0.0008677303653, Final residual = 5.780746771e-20, No Iterations 1
time step continuity errors : sum local = 1.251483107e-14, global = 3.389957088e-16
PIMPLE: Iteration 2
diagonal:  Solving for alpha, Initial residual = 0, Final residual = 0, No Iterations 0
DILUPBiCGStab:  Solving for Ux, Initial residual = 0.0008206802866, Final residual = 8.792921072e-20, No Iterations 1
DILUPBiCGStab:  Solving for Uy, Initial residual = 7.65142931e-06, Final residual = 8.62683436e-22, No Iterations 1
DILUPBiCGStab:  Solving for e, Initial residual = 5.724744308e-07, Final residual = 6.817956711e-23, No Iterations 1
DILUPBiCGStab:  Solving for alpha, Initial residual = 2.139971641e-05, Final residual = 1.625162511e-21, No Iterations 1
time step continuity errors : sum local = 1.314970603e-14, global = -1.628108175e-15, cumulative = 8.22712794e-15
ExecutionTime = 12.69916 s  ClockTime = 13 s

Courant Number mean: 0.0003063536469 max: 0.1794840942
deltaT = 0.00178021978
Time = 0.0528791s

PIMPLE: Iteration 1
diagonal:  Solving for alpha, Initial residual = 0, Final residual = 0, No Iterations 0
DILUPBiCGStab:  Solving for Ux, Initial residual = 0.03104737978, Final residual = 3.770792602e-18, No Iterations 1
DILUPBiCGStab:  Solving for Uy, Initial residual = 0.0001047318547, Final residual = 1.270422113e-20, No Iterations 1
DILUPBiCGStab:  Solving for e, Initial residual = 1.501230958e-05, Final residual = 1.712042726e-21, No Iterations 1
DILUPBiCGStab:  Solving for alpha, Initial residual = 0.0009231259138, Final residual = 5.783557754e-20, No Iterations 1
time step continuity errors : sum local = 1.269947556e-14, global = 4.86036193e-17
PIMPLE: Iteration 2
diagonal:  Solving for alpha, Initial residual = 0, Final residual = 0, No Iterations 0
DILUPBiCGStab:  Solving for Ux, Initial residual = 0.001155527146, Final residual = 1.566971554e-19, No Iterations 1
DILUPBiCGStab:  Solving for Uy, Initial residual = 7.963940071e-06, Final residual = 1.695390482e-21, No Iterations 1
DILUPBiCGStab:  Solving for e, Initial residual = 5.104483013e-07, Final residual = 5.487029544e-23, No Iterations 1
DILUPBiCGStab:  Solving for alpha, Initial residual = 2.955909387e-05, Final residual = 5.8620486e-21, No Iterations 1
time step continuity errors : sum local = 1.225440898e-14, global = 2.252606426e-15, cumulative = 1.047973437e-14
ExecutionTime = 13.017512 s  ClockTime = 13 s

Courant Number mean: 0.0003131035743 max: 0.1824164008
deltaT = 0.00178021978
Time = 0.0546593s

PIMPLE: Iteration 1
diagonal:  Solving for alpha, Initial residual = 0, Final residual = 0, No Iterations 0
DILUPBiCGStab:  Solving for Ux, Initial residual = 0.03252168125, Final residual = 3.872980591e-18, No Iterations 1
DILUPBiCGStab:  Solving for Uy, Initial residual = 0.0001414632253, Final residual = 1.344490429e-20, No Iterations 1
DILUPBiCGStab:  Solving for e, Initial residual = 1.467201768e-05, Final residual = 2.672189496e-21, No Iterations 1
DILUPBiCGStab:  Solving for alpha, Initial residual = 0.0008930947991, Final residual = 5.991049804e-20, No Iterations 1
time step continuity errors : sum local = 1.232388852e-14, global = -2.84312671e-15
PIMPLE: Iteration 2
diagonal:  Solving for alpha, Initial residual = 0, Final residual = 0, No Iterations 0
DILUPBiCGStab:  Solving for Ux, Initial residual = 0.0008189434421, Final residual = 9.939231498e-20, No Iterations 1
DILUPBiCGStab:  Solving for Uy, Initial residual = 8.145596996e-06, Final residual = 1.899062087e-21, No Iterations 1
DILUPBiCGStab:  Solving for e, Initial residual = 5.146153915e-07, Final residual = 1.109336183e-22, No Iterations 1
DILUPBiCGStab:  Solving for alpha, Initial residual = 2.147555206e-05, Final residual = 4.649340722e-21, No Iterations 1
time step continuity errors : sum local = 1.136395983e-14, global = -3.093654627e-15, cumulative = 7.38607974e-15
ExecutionTime = 13.337384 s  ClockTime = 14 s

Courant Number mean: 0.0003191584079 max: 0.1851548362
deltaT = 0.00178021978
Time = 0.0564396s

PIMPLE: Iteration 1
diagonal:  Solving for alpha, Initial residual = 0, Final residual = 0, No Iterations 0
DILUPBiCGStab:  Solving for Ux, Initial residual = 0.03207940246, Final residual = 6.72099082e-18, No Iterations 1
DILUPBiCGStab:  Solving for Uy, Initial residual = 0.000184848881, Final residual = 6.530255122e-20, No Iterations 1
DILUPBiCGStab:  Solving for e, Initial residual = 1.423226582e-05, Final residual = 1.674724015e-21, No Iterations 1
DILUPBiCGStab:  Solving for alpha, Initial residual = 0.0007932967404, Final residual = 4.839628196e-20, No Iterations 1
time step continuity errors : sum local = 1.505378265e-14, global = 1.410408746e-15
PIMPLE: Iteration 2
diagonal:  Solving for alpha, Initial residual = 0, Final residual = 0, No Iterations 0
DILUPBiCGStab:  Solving for Ux, Initial residual = 0.001051783097, Final residual = 1.240637762e-19, No Iterations 1
DILUPBiCGStab:  Solving for Uy, Initial residual = 1.260830632e-05, Final residual = 3.657633313e-21, No Iterations 1
DILUPBiCGStab:  Solving for e, Initial residual = 4.623872339e-07, Final residual = 5.800292969e-23, No Iterations 1
DILUPBiCGStab:  Solving for alpha, Initial residual = 2.675068755e-05, Final residual = 2.451162088e-21, No Iterations 1
time step continuity errors : sum local = 1.269699701e-14, global = 2.704905029e-15, cumulative = 1.009098477e-14
ExecutionTime = 13.656707 s  ClockTime = 14 s

Courant Number mean: 0.0003241486989 max: 0.1871548135
deltaT = 0.00178021978
Time = 0.0582198s

PIMPLE: Iteration 1
diagonal:  Solving for alpha, Initial residual = 0, Final residual = 0, No Iterations 0
DILUPBiCGStab:  Solving for Ux, Initial residual = 0.02929009276, Final residual = 3.208167156e-18, No Iterations 1
DILUPBiCGStab:  Solving for Uy, Initial residual = 0.000240970823, Final residual = 2.710023452e-20, No Iterations 1
DILUPBiCGStab:  Solving for e, Initial residual = 1.388327095e-05, Final residual = 1.509120706e-21, No Iterations 1
DILUPBiCGStab:  Solving for alpha, Initial residual = 0.0007414988361, Final residual = 1.584930413e-19, No Iterations 1
time step continuity errors : sum local = 1.420308351e-14, global = 3.119539041e-16
PIMPLE: Iteration 2
diagonal:  Solving for alpha, Initial residual = 0, Final residual = 0, No Iterations 0
DILUPBiCGStab:  Solving for Ux, Initial residual = 0.000727958088, Final residual = 7.964150683e-20, No Iterations 1
DILUPBiCGStab:  Solving for Uy, Initial residual = 8.89877215e-06, Final residual = 2.089158649e-21, No Iterations 1
DILUPBiCGStab:  Solving for e, Initial residual = 4.773959875e-07, Final residual = 7.841283276e-23, No Iterations 1
DILUPBiCGStab:  Solving for alpha, Initial residual = 2.170125013e-05, Final residual = 4.776384174e-21, No Iterations 1
time step continuity errors : sum local = 1.513701669e-14, global = 8.438823831e-16, cumulative = 1.093486715e-14
ExecutionTime = 13.977019 s  ClockTime = 14 s

Courant Number mean: 0.0003279371616 max: 0.1880778472
deltaT = 0.00178021978
Time = 0.06s

PIMPLE: Iteration 1
diagonal:  Solving for alpha, Initial residual = 0, Final residual = 0, No Iterations 0
DILUPBiCGStab:  Solving for Ux, Initial residual = 0.02236745128, Final residual = 2.215761876e-18, No Iterations 1
DILUPBiCGStab:  Solving for Uy, Initial residual = 0.0002880513192, Final residual = 6.160303811e-20, No Iterations 1
DILUPBiCGStab:  Solving for e, Initial residual = 1.353567917e-05, Final residual = 1.480860901e-21, No Iterations 1
DILUPBiCGStab:  Solving for alpha, Initial residual = 0.0006224795368, Final residual = 4.691264206e-20, No Iterations 1
time step continuity errors : sum local = 1.271146135e-14, global = 7.679495743e-16
PIMPLE: Iteration 2
diagonal:  Solving for alpha, Initial residual = 0, Final residual = 0, No Iterations 0
DILUPBiCGStab:  Solving for Ux, Initial residual = 0.0005439070212, Final residual = 4.930785725e-20, No Iterations 1
DILUPBiCGStab:  Solving for Uy, Initial residual = 7.805287622e-06, Final residual = 1.394499052e-21, No Iterations 1
DILUPBiCGStab:  Solving for e, Initial residual = 4.73761153e-07, Final residual = 8.263362024e-23, No Iterations 1
DILUPBiCGStab:  Solving for alpha, Initial residual = 1.623752136e-05, Final residual = 3.094134295e-21, No Iterations 1
time step continuity errors : sum local = 1.274283643e-14, global = 9.301368819e-16, cumulative = 1.186500403e-14
ExecutionTime = 14.462516 s  ClockTime = 15 s

Courant Number mean: 0.0003303366938 max: 0.1880730334
deltaT = 0.001818181818
Time = 0.0618182s

PIMPLE: Iteration 1
diagonal:  Solving for alpha, Initial residual = 0, Final residual = 0, No Iterations 0
DILUPBiCGStab:  Solving for Ux, Initial residual = 0.01744721589, Final residual = 3.756958791e-18, No Iterations 1
DILUPBiCGStab:  Solving for Uy, Initial residual = 0.0003202226482, Final residual = 2.907627018e-20, No Iterations 1
DILUPBiCGStab:  Solving for e, Initial residual = 1.316764618e-05, Final residual = 1.415382281e-21, No Iterations 1
DILUPBiCGStab:  Solving for alpha, Initial residual = 0.0005525478467, Final residual = 3.475771389e-20, No Iterations 1
time step continuity errors : sum local = 1.455708612e-14, global = 1.362026889e-15
PIMPLE: Iteration 2
diagonal:  Solving for alpha, Initial residual = 0, Final residual = 0, No Iterations 0
DILUPBiCGStab:  Solving for Ux, Initial residual = 0.0005018898995, Final residual = 9.465936509e-20, No Iterations 1
DILUPBiCGStab:  Solving for Uy, Initial residual = 9.23518372e-06, Final residual = 9.467133511e-22, No Iterations 1
DILUPBiCGStab:  Solving for e, Initial residual = 4.687957312e-07, Final residual = 5.188090066e-23, No Iterations 1
DILUPBiCGStab:  Solving for alpha, Initial residual = 2.138865609e-05, Final residual = 1.369941535e-21, No Iterations 1
time step continuity errors : sum local = 1.254864975e-14, global = 8.85748683e-16, cumulative = 1.275075272e-14
ExecutionTime = 14.79015 s  ClockTime = 15 s

Courant Number mean: 0.000338567407 max: 0.1936536341
deltaT = 0.001818181818
Time = 0.0636364s

PIMPLE: Iteration 1
diagonal:  Solving for alpha, Initial residual = 0, Final residual = 0, No Iterations 0
DILUPBiCGStab:  Solving for Ux, Initial residual = 0.01319267825, Final residual = 1.471436733e-18, No Iterations 1
DILUPBiCGStab:  Solving for Uy, Initial residual = 0.0003541576772, Final residual = 8.518156626e-20, No Iterations 1
DILUPBiCGStab:  Solving for e, Initial residual = 1.299942914e-05, Final residual = 1.642402969e-21, No Iterations 1
DILUPBiCGStab:  Solving for alpha, Initial residual = 0.0005156228738, Final residual = 3.789622184e-20, No Iterations 1
time step continuity errors : sum local = 1.158924961e-14, global = -1.397818959e-16
PIMPLE: Iteration 2
diagonal:  Solving for alpha, Initial residual = 0, Final residual = 0, No Iterations 0
DILUPBiCGStab:  Solving for Ux, Initial residual = 0.0003669841526, Final residual = 4.336041047e-20, No Iterations 1
DILUPBiCGStab:  Solving for Uy, Initial residual = 8.478382596e-06, Final residual = 6.764896003e-22, No Iterations 1
DILUPBiCGStab:  Solving for e, Initial residual = 4.506381883e-07, Final residual = 4.184620214e-23, No Iterations 1
DILUPBiCGStab:  Solving for alpha, Initial residual = 1.360797341e-05, Final residual = 7.686154916e-22, No Iterations 1
time step continuity errors : sum local = 1.386936549e-14, global = 1.864669668e-15, cumulative = 1.461542238e-14
ExecutionTime = 15.119807 s  ClockTime = 16 s

Courant Number mean: 0.0003388181437 max: 0.1954429341
deltaT = 0.001818181818
Time = 0.0654545s

PIMPLE: Iteration 1
diagonal:  Solving for alpha, Initial residual = 0, Final residual = 0, No Iterations 0
DILUPBiCGStab:  Solving for Ux, Initial residual = 0.01052347412, Final residual = 1.288162704e-18, No Iterations 1
DILUPBiCGStab:  Solving for Uy, Initial residual = 0.0003824145995, Final residual = 7.103810823e-20, No Iterations 1
DILUPBiCGStab:  Solving for e, Initial residual = 1.273711242e-05, Final residual = 1.5417854e-21, No Iterations 1
DILUPBiCGStab:  Solving for alpha, Initial residual = 0.0004311307436, Final residual = 2.677464173e-20, No Iterations 1
time step continuity errors : sum local = 1.438141602e-14, global = -1.414382944e-15
PIMPLE: Iteration 2
diagonal:  Solving for alpha, Initial residual = 0, Final residual = 0, No Iterations 0
DILUPBiCGStab:  Solving for Ux, Initial residual = 0.0003093553382, Final residual = 3.887607956e-20, No Iterations 1
DILUPBiCGStab:  Solving for Uy, Initial residual = 8.855418797e-06, Final residual = 8.230081779e-22, No Iterations 1
DILUPBiCGStab:  Solving for e, Initial residual = 4.78242662e-07, Final residual = 4.935992385e-23, No Iterations 1
DILUPBiCGStab:  Solving for alpha, Initial residual = 1.436983133e-05, Final residual = 3.092554951e-21, No Iterations 1
time step continuity errors : sum local = 1.40411026e-14, global = -1.760797294e-15, cumulative = 1.285462509e-14
ExecutionTime = 15.436471 s  ClockTime = 16 s

Courant Number mean: 0.000338222017 max: 0.1976192819
deltaT = 0.001818181818
Time = 0.0672727s

PIMPLE: Iteration 1
diagonal:  Solving for alpha, Initial residual = 0, Final residual = 0, No Iterations 0
DILUPBiCGStab:  Solving for Ux, Initial residual = 0.008318574309, Final residual = 9.417209431e-19, No Iterations 1
DILUPBiCGStab:  Solving for Uy, Initial residual = 0.0004075627024, Final residual = 5.126018387e-20, No Iterations 1
DILUPBiCGStab:  Solving for e, Initial residual = 1.24876631e-05, Final residual = 1.271701516e-21, No Iterations 1
DILUPBiCGStab:  Solving for alpha, Initial residual = 0.0004054913718, Final residual = 2.865997052e-20, No Iterations 1
time step continuity errors : sum local = 1.298280001e-14, global = 2.130281982e-16
PIMPLE: Iteration 2
diagonal:  Solving for alpha, Initial residual = 0, Final residual = 0, No Iterations 0
DILUPBiCGStab:  Solving for Ux, Initial residual = 0.0002960319817, Final residual = 3.748247432e-20, No Iterations 1
DILUPBiCGStab:  Solving for Uy, Initial residual = 8.141049869e-06, Final residual = 8.209583914e-22, No Iterations 1
DILUPBiCGStab:  Solving for e, Initial residual = 4.720737084e-07, Final residual = 5.538119859e-23, No Iterations 1
DILUPBiCGStab:  Solving for alpha, Initial residual = 1.724576923e-05, Final residual = 3.174538512e-21, No Iterations 1
time step continuity errors : sum local = 1.330665726e-14, global = 4.985844598e-16, cumulative = 1.335320955e-14
ExecutionTime = 15.761007 s  ClockTime = 16 s

Courant Number mean: 0.0003367104379 max: 0.1992285299
deltaT = 0.001818181818
Time = 0.0690909s

PIMPLE: Iteration 1
diagonal:  Solving for alpha, Initial residual = 0, Final residual = 0, No Iterations 0
DILUPBiCGStab:  Solving for Ux, Initial residual = 0.006719540197, Final residual = 8.101010692e-19, No Iterations 1
DILUPBiCGStab:  Solving for Uy, Initial residual = 0.0004351185942, Final residual = 1.002818304e-19, No Iterations 1
DILUPBiCGStab:  Solving for e, Initial residual = 1.218189151e-05, Final residual = 1.611665944e-21, No Iterations 1
DILUPBiCGStab:  Solving for alpha, Initial residual = 0.000347718305, Final residual = 2.374139279e-20, No Iterations 1
time step continuity errors : sum local = 1.253614898e-14, global = -2.774445044e-15
PIMPLE: Iteration 2
diagonal:  Solving for alpha, Initial residual = 0, Final residual = 0, No Iterations 0
DILUPBiCGStab:  Solving for Ux, Initial residual = 0.0002613388366, Final residual = 4.826452467e-20, No Iterations 1
DILUPBiCGStab:  Solving for Uy, Initial residual = 8.040330448e-06, Final residual = 1.846202128e-21, No Iterations 1
DILUPBiCGStab:  Solving for e, Initial residual = 4.253237521e-07, Final residual = 5.624853377e-23, No Iterations 1
DILUPBiCGStab:  Solving for alpha, Initial residual = 1.694256591e-05, Final residual = 2.698470939e-21, No Iterations 1
time step continuity errors : sum local = 1.553997566e-14, global = -2.69944802e-15, cumulative = 1.065376153e-14
ExecutionTime = 16.086192 s  ClockTime = 17 s

Courant Number mean: 0.0003339587377 max: 0.1998739554
deltaT = 0.001818181818
Time = 0.0709091s

PIMPLE: Iteration 1
diagonal:  Solving for alpha, Initial residual = 0, Final residual = 0, No Iterations 0
DILUPBiCGStab:  Solving for Ux, Initial residual = 0.005910240604, Final residual = 6.038167153e-19, No Iterations 1
DILUPBiCGStab:  Solving for Uy, Initial residual = 0.0004584297384, Final residual = 9.50068299e-20, No Iterations 1
DILUPBiCGStab:  Solving for e, Initial residual = 1.177355613e-05, Final residual = 1.339355746e-21, No Iterations 1
DILUPBiCGStab:  Solving for alpha, Initial residual = 0.0003681745158, Final residual = 2.431074894e-20, No Iterations 1
time step continuity errors : sum local = 1.45958063e-14, global = 7.899708632e-16
PIMPLE: Iteration 2
diagonal:  Solving for alpha, Initial residual = 0, Final residual = 0, No Iterations 0
DILUPBiCGStab:  Solving for Ux, Initial residual = 0.0002777025599, Final residual = 5.015645313e-20, No Iterations 1
DILUPBiCGStab:  Solving for Uy, Initial residual = 8.63922347e-06, Final residual = 1.885257959e-21, No Iterations 1
DILUPBiCGStab:  Solving for e, Initial residual = 4.483777883e-07, Final residual = 4.891613707e-23, No Iterations 1
DILUPBiCGStab:  Solving for alpha, Initial residual = 1.919222484e-05, Final residual = 1.779026619e-21, No Iterations 1
time step continuity errors : sum local = 1.490983078e-14, global = -2.47349609e-15, cumulative = 8.180265439e-15
ExecutionTime = 16.402239 s  ClockTime = 17 s

Courant Number mean: 0.0003304393788 max: 0.2001490612
deltaT = 0.001818181818
Time = 0.0727273s

PIMPLE: Iteration 1
diagonal:  Solving for alpha, Initial residual = 0, Final residual = 0, No Iterations 0
DILUPBiCGStab:  Solving for Ux, Initial residual = 0.005507696734, Final residual = 6.352469006e-19, No Iterations 1
DILUPBiCGStab:  Solving for Uy, Initial residual = 0.0004852965307, Final residual = 1.163666768e-19, No Iterations 1
DILUPBiCGStab:  Solving for e, Initial residual = 1.151906256e-05, Final residual = 1.412244749e-21, No Iterations 1
DILUPBiCGStab:  Solving for alpha, Initial residual = 0.0003680291215, Final residual = 7.845469241e-20, No Iterations 1
time step continuity errors : sum local = 1.156990064e-14, global = 1.427929275e-15
PIMPLE: Iteration 2
diagonal:  Solving for alpha, Initial residual = 0, Final residual = 0, No Iterations 0
DILUPBiCGStab:  Solving for Ux, Initial residual = 0.000226883862, Final residual = 4.914501727e-20, No Iterations 1
DILUPBiCGStab:  Solving for Uy, Initial residual = 9.145989305e-06, Final residual = 2.077366939e-21, No Iterations 1
DILUPBiCGStab:  Solving for e, Initial residual = 3.724912412e-07, Final residual = 7.957968613e-23, No Iterations 1
DILUPBiCGStab:  Solving for alpha, Initial residual = 1.511418143e-05, Final residual = 7.753587752e-22, No Iterations 1
time step continuity errors : sum local = 1.122190878e-14, global = 7.750352768e-16, cumulative = 8.955300715e-15
ExecutionTime = 16.729431 s  ClockTime = 17 s

Courant Number mean: 0.000326212803 max: 0.2011200102
deltaT = 0.001454545455
Time = 0.0741818s

PIMPLE: Iteration 1
diagonal:  Solving for alpha, Initial residual = 0, Final residual = 0, No Iterations 0
DILUPBiCGStab:  Solving for Ux, Initial residual = 0.004732683694, Final residual = 6.451791267e-19, No Iterations 1
DILUPBiCGStab:  Solving for Uy, Initial residual = 0.0005097226211, Final residual = 6.735942192e-20, No Iterations 1
DILUPBiCGStab:  Solving for e, Initial residual = 1.112888212e-05, Final residual = 1.287162595e-21, No Iterations 1
DILUPBiCGStab:  Solving for alpha, Initial residual = 0.0002369254267, Final residual = 1.261084665e-20, No Iterations 1
time step continuity errors : sum local = 1.207279909e-14, global = 3.052043998e-15
PIMPLE: Iteration 2
diagonal:  Solving for alpha, Initial residual = 0, Final residual = 0, No Iterations 0
DILUPBiCGStab:  Solving for Ux, Initial residual = 0.0002115562956, Final residual = 2.271187756e-20, No Iterations 1
DILUPBiCGStab:  Solving for Uy, Initial residual = 1.051551137e-05, Final residual = 1.202819709e-21, No Iterations 1
DILUPBiCGStab:  Solving for e, Initial residual = 5.803210345e-07, Final residual = 1.115291551e-22, No Iterations 1
DILUPBiCGStab:  Solving for alpha, Initial residual = 1.071942082e-05, Final residual = 5.969688107e-22, No Iterations 1
time step continuity errors : sum local = 1.268764106e-14, global = 2.533212376e-15, cumulative = 1.148851309e-14
ExecutionTime = 17.048419 s  ClockTime = 18 s

Courant Number mean: 0.0002587207777 max: 0.1606500506
deltaT = 0.001454545455
Time = 0.0756364s

PIMPLE: Iteration 1
diagonal:  Solving for alpha, Initial residual = 0, Final residual = 0, No Iterations 0
DILUPBiCGStab:  Solving for Ux, Initial residual = 0.004410209622, Final residual = 1.015498122e-18, No Iterations 1
DILUPBiCGStab:  Solving for Uy, Initial residual = 0.0005337632113, Final residual = 7.369816851e-20, No Iterations 1
DILUPBiCGStab:  Solving for e, Initial residual = 1.04135116e-05, Final residual = 1.19326521e-21, No Iterations 1
DILUPBiCGStab:  Solving for alpha, Initial residual = 0.00025897687, Final residual = 1.234809555e-14, No Iterations 1
time step continuity errors : sum local = 4.905012158e-12, global = -2.725036005e-12
PIMPLE: Iteration 2
diagonal:  Solving for alpha, Initial residual = 0, Final residual = 0, No Iterations 0
DILUPBiCGStab:  Solving for Ux, Initial residual = 0.0001612429044, Final residual = 2.358985082e-16, No Iterations 1
DILUPBiCGStab:  Solving for Uy, Initial residual = 1.685348882e-05, Final residual = 7.583921582e-16, No Iterations 1
DILUPBiCGStab:  Solving for e, Initial residual = 1.19353451e-06, Final residual = 2.676846852e-18, No Iterations 1
DILUPBiCGStab:  Solving for alpha, Initial residual = 1.895050591e-05, Final residual = 3.38455438e-11, No Iterations 1
time step continuity errors : sum local = 1.344807624e-08, global = 1.32242081e-08, cumulative = 1.322421959e-08
ExecutionTime = 17.367304 s  ClockTime = 18 s

Courant Number mean: 0.0002563037313 max: 0.1623665086
deltaT = 0.001454545455
Time = 0.0770909s

PIMPLE: Iteration 1
diagonal:  Solving for alpha, Initial residual = 0, Final residual = 0, No Iterations 0
DILUPBiCGStab:  Solving for Ux, Initial residual = 0.004806795729, Final residual = 4.996407998e-19, No Iterations 1
DILUPBiCGStab:  Solving for Uy, Initial residual = 0.002097488152, Final residual = 1.292967012e-19, No Iterations 1
DILUPBiCGStab:  Solving for e, Initial residual = 0.0001969435052, Final residual = 1.194056553e-21, No Iterations 1
DILUPBiCGStab:  Solving for alpha, Initial residual = 0.0003282882096, Final residual = 3.801377091e-14, No Iterations 1
time step continuity errors : sum local = 1.51050629e-11, global = -7.438510056e-12
PIMPLE: Iteration 2
diagonal:  Solving for alpha, Initial residual = 0, Final residual = 0, No Iterations 0
DILUPBiCGStab:  Solving for Ux, Initial residual = 0.0001666184855, Final residual = 2.569743403e-14, No Iterations 1
DILUPBiCGStab:  Solving for Uy, Initial residual = 2.586377451e-05, Final residual = 2.357968139e-14, No Iterations 1
DILUPBiCGStab:  Solving for e, Initial residual = 4.175868727e-06, Final residual = 3.7071154e-17, No Iterations 1
DILUPBiCGStab:  Solving for alpha, Initial residual = 6.009678088e-05, Final residual = 7.552964555e-18, No Iterations 1
time step continuity errors : sum local = 1.47963045e-14, global = -3.895552718e-15, cumulative = 1.32242157e-08
ExecutionTime = 17.693657 s  ClockTime = 18 s

[...]
time step continuity errors : sum local = 6.604055922e-11, global = 3.398421898e-11, cumulative = 8.894171447e-08
ExecutionTime = 100.196448 s  ClockTime = 101 s

Courant Number mean: 0.001905849775 max: 0.1854424087
deltaT = 0.0005099587912
Time = 0.27643s

PIMPLE: Iteration 1
diagonal:  Solving for alpha, Initial residual = 0, Final residual = 0, No Iterations 0
DILUPBiCGStab:  Solving for Ux, Initial residual = 0.001924777661, Final residual = 1.625868663e-12, No Iterations 1
DILUPBiCGStab:  Solving for Uy, Initial residual = 0.0002633313941, Final residual = 3.749830025e-13, No Iterations 1
DILUPBiCGStab:  Solving for e, Initial residual = 0.0001713058287, Final residual = 3.468938679e-13, No Iterations 1
DILUPBiCGStab:  Solving for alpha, Initial residual = 0.0005036431467, Final residual = 1.312296886e-12, No Iterations 1
time step continuity errors : sum local = 5.094914929e-10, global = 1.640630958e-10
PIMPLE: Iteration 2
diagonal:  Solving for alpha, Initial residual = 0, Final residual = 0, No Iterations 0
DILUPBiCGStab:  Solving for Ux, Initial residual = 0.0001689614394, Final residual = 7.338516916e-14, No Iterations 1
DILUPBiCGStab:  Solving for Uy, Initial residual = 2.221347135e-05, Final residual = 6.767743343e-15, No Iterations 1
DILUPBiCGStab:  Solving for e, Initial residual = 2.413613101e-05, Final residual = 8.303420288e-15, No Iterations 1
DILUPBiCGStab:  Solving for alpha, Initial residual = 0.0001859214353, Final residual = 2.027062044e-13, No Iterations 1
time step continuity errors : sum local = 7.867695102e-11, global = 3.869427057e-11, cumulative = 8.898040874e-08
ExecutionTime = 100.530925 s  ClockTime = 101 s

Courant Number mean: 0.001910138695 max: 0.1871538856
deltaT = 0.0005099587912
Time = 0.27694s

PIMPLE: Iteration 1
diagonal:  Solving for alpha, Initial residual = 0, Final residual = 0, No Iterations 0
DILUPBiCGStab:  Solving for Ux, Initial residual = 0.001965276412, Final residual = 1.533332346e-12, No Iterations 1
DILUPBiCGStab:  Solving for Uy, Initial residual = 0.0002573178996, Final residual = 3.64691074e-13, No Iterations 1
DILUPBiCGStab:  Solving for e, Initial residual = 0.0001666589212, Final residual = 3.214210202e-13, No Iterations 1
DILUPBiCGStab:  Solving for alpha, Initial residual = 0.0004999836101, Final residual = 1.542212014e-12, No Iterations 1
time step continuity errors : sum local = 5.986949638e-10, global = 1.86411915e-10
PIMPLE: Iteration 2
diagonal:  Solving for alpha, Initial residual = 0, Final residual = 0, No Iterations 0
DILUPBiCGStab:  Solving for Ux, Initial residual = 0.0001825708639, Final residual = 7.442167305e-14, No Iterations 1
DILUPBiCGStab:  Solving for Uy, Initial residual = 2.118819311e-05, Final residual = 6.019494501e-15, No Iterations 1
DILUPBiCGStab:  Solving for e, Initial residual = 2.307642483e-05, Final residual = 8.298955296e-15, No Iterations 1
DILUPBiCGStab:  Solving for alpha, Initial residual = 0.0001840084373, Final residual = 1.999591428e-13, No Iterations 1
time step continuity errors : sum local = 7.760279434e-11, global = 4.326111798e-11, cumulative = 8.902366986e-08
ExecutionTime = 100.862771 s  ClockTime = 102 s

Courant Number mean: 0.001914099847 max: 0.1886244507
deltaT = 0.0005099587912
Time = 0.27745s

PIMPLE: Iteration 1
diagonal:  Solving for alpha, Initial residual = 0, Final residual = 0, No Iterations 0
DILUPBiCGStab:  Solving for Ux, Initial residual = 0.001993379842, Final residual = 1.465049153e-12, No Iterations 1
DILUPBiCGStab:  Solving for Uy, Initial residual = 0.0002555571272, Final residual = 3.518711931e-13, No Iterations 1
DILUPBiCGStab:  Solving for e, Initial residual = 0.0001642188631, Final residual = 2.969896532e-13, No Iterations 1
DILUPBiCGStab:  Solving for alpha, Initial residual = 0.0004995911051, Final residual = 1.796746272e-12, No Iterations 1
time step continuity errors : sum local = 6.974481542e-10, global = 2.075225849e-10
PIMPLE: Iteration 2
diagonal:  Solving for alpha, Initial residual = 0, Final residual = 0, No Iterations 0
DILUPBiCGStab:  Solving for Ux, Initial residual = 0.0001872426515, Final residual = 6.629166697e-14, No Iterations 1
DILUPBiCGStab:  Solving for Uy, Initial residual = 2.176539081e-05, Final residual = 6.550223027e-15, No Iterations 1
DILUPBiCGStab:  Solving for e, Initial residual = 2.340495696e-05, Final residual = 8.491259701e-15, No Iterations 1
DILUPBiCGStab:  Solving for alpha, Initial residual = 0.0001801499887, Final residual = 2.913611042e-13, No Iterations 1
time step continuity errors : sum local = 1.130661268e-10, global = 1.227558591e-11, cumulative = 8.903594544e-08
ExecutionTime = 101.201646 s  ClockTime = 102 s

Courant Number mean: 0.001918898788 max: 0.1899370996
deltaT = 0.0005099587912
Time = 0.27796s

PIMPLE: Iteration 1
diagonal:  Solving for alpha, Initial residual = 0, Final residual = 0, No Iterations 0
DILUPBiCGStab:  Solving for Ux, Initial residual = 0.00207413131, Final residual = 1.401096817e-12, No Iterations 1
DILUPBiCGStab:  Solving for Uy, Initial residual = 0.000255254992, Final residual = 3.347273076e-13, No Iterations 1
DILUPBiCGStab:  Solving for e, Initial residual = 0.0001617756023, Final residual = 2.705562006e-13, No Iterations 1
DILUPBiCGStab:  Solving for alpha, Initial residual = 0.0004973717934, Final residual = 1.854266554e-12, No Iterations 1
time step continuity errors : sum local = 7.197233772e-10, global = 2.289602609e-10
PIMPLE: Iteration 2
diagonal:  Solving for alpha, Initial residual = 0, Final residual = 0, No Iterations 0
DILUPBiCGStab:  Solving for Ux, Initial residual = 0.0001811453558, Final residual = 6.884094363e-14, No Iterations 1
DILUPBiCGStab:  Solving for Uy, Initial residual = 2.15901425e-05, Final residual = 6.281924561e-15, No Iterations 1
DILUPBiCGStab:  Solving for e, Initial residual = 2.313992507e-05, Final residual = 8.170932674e-15, No Iterations 1
DILUPBiCGStab:  Solving for alpha, Initial residual = 0.0001850845282, Final residual = 1.527195667e-13, No Iterations 1
time step continuity errors : sum local = 5.92606717e-11, global = 3.750786273e-11, cumulative = 8.907345331e-08
ExecutionTime = 101.537488 s  ClockTime = 102 s

Courant Number mean: 0.00192465318 max: 0.1911346727
deltaT = 0.0005099587912
Time = 0.27847s

PIMPLE: Iteration 1
diagonal:  Solving for alpha, Initial residual = 0, Final residual = 0, No Iterations 0
DILUPBiCGStab:  Solving for Ux, Initial residual = 0.002142548826, Final residual = 1.367376515e-12, No Iterations 1
DILUPBiCGStab:  Solving for Uy, Initial residual = 0.0002540708427, Final residual = 3.19040816e-13, No Iterations 1
DILUPBiCGStab:  Solving for e, Initial residual = 0.0001605946659, Final residual = 2.438171576e-13, No Iterations 1
DILUPBiCGStab:  Solving for alpha, Initial residual = 0.0004966621833, Final residual = 1.803941676e-12, No Iterations 1
time step continuity errors : sum local = 7.00133968e-10, global = 2.694347137e-10
PIMPLE: Iteration 2
diagonal:  Solving for alpha, Initial residual = 0, Final residual = 0, No Iterations 0
DILUPBiCGStab:  Solving for Ux, Initial residual = 0.0001996553018, Final residual = 7.389332609e-14, No Iterations 1
DILUPBiCGStab:  Solving for Uy, Initial residual = 2.155613298e-05, Final residual = 5.935112972e-15, No Iterations 1
DILUPBiCGStab:  Solving for e, Initial residual = 2.296477366e-05, Final residual = 8.225373176e-15, No Iterations 1
DILUPBiCGStab:  Solving for alpha, Initial residual = 0.0001797578874, Final residual = 1.320941197e-13, No Iterations 1
time step continuity errors : sum local = 5.125233511e-11, global = 2.896882417e-11, cumulative = 8.910242213e-08
ExecutionTime = 101.877238 s  ClockTime = 103 s

Courant Number mean: 0.001930859973 max: 0.1922409736
deltaT = 0.0005099587912
Time = 0.27898s

PIMPLE: Iteration 1
diagonal:  Solving for alpha, Initial residual = 0, Final residual = 0, No Iterations 0
DILUPBiCGStab:  Solving for Ux, Initial residual = 0.00231397727, Final residual = 1.352718289e-12, No Iterations 1
DILUPBiCGStab:  Solving for Uy, Initial residual = 0.000255146509, Final residual = 3.035773586e-13, No Iterations 1
DILUPBiCGStab:  Solving for e, Initial residual = 0.0001602519314, Final residual = 2.182499616e-13, No Iterations 1
DILUPBiCGStab:  Solving for alpha, Initial residual = 0.0004986747401, Final residual = 3.457865194e-12, No Iterations 1
time step continuity errors : sum local = 1.341932627e-09, global = 2.528430293e-10
PIMPLE: Iteration 2
diagonal:  Solving for alpha, Initial residual = 0, Final residual = 0, No Iterations 0
DILUPBiCGStab:  Solving for Ux, Initial residual = 0.0001917893526, Final residual = 1.031411473e-13, No Iterations 1
DILUPBiCGStab:  Solving for Uy, Initial residual = 2.092219856e-05, Final residual = 6.591037943e-15, No Iterations 1
DILUPBiCGStab:  Solving for e, Initial residual = 2.280766293e-05, Final residual = 7.876029282e-15, No Iterations 1
DILUPBiCGStab:  Solving for alpha, Initial residual = 0.0001784012209, Final residual = 2.776922201e-13, No Iterations 1
time step continuity errors : sum local = 1.077335143e-10, global = 7.507333503e-12, cumulative = 8.910992946e-08
ExecutionTime = 102.229741 s  ClockTime = 103 s

Courant Number mean: 0.00193726278 max: 0.1932678267
deltaT = 0.0005099587912
Time = 0.27949s

PIMPLE: Iteration 1
diagonal:  Solving for alpha, Initial residual = 0, Final residual = 0, No Iterations 0
DILUPBiCGStab:  Solving for Ux, Initial residual = 0.002229378504, Final residual = 1.372496846e-12, No Iterations 1
DILUPBiCGStab:  Solving for Uy, Initial residual = 0.000251815445, Final residual = 2.829964617e-13, No Iterations 1
DILUPBiCGStab:  Solving for e, Initial residual = 0.0001544166717, Final residual = 1.887868814e-13, No Iterations 1
DILUPBiCGStab:  Solving for alpha, Initial residual = 0.0004986896824, Final residual = 2.734287947e-12, No Iterations 1
time step continuity errors : sum local = 1.061027144e-09, global = 1.26439154e-10
PIMPLE: Iteration 2
diagonal:  Solving for alpha, Initial residual = 0, Final residual = 0, No Iterations 0
DILUPBiCGStab:  Solving for Ux, Initial residual = 0.0002035417991, Final residual = 8.796483768e-14, No Iterations 1
DILUPBiCGStab:  Solving for Uy, Initial residual = 2.07886861e-05, Final residual = 5.178898153e-15, No Iterations 1
DILUPBiCGStab:  Solving for e, Initial residual = 2.294692561e-05, Final residual = 6.80316033e-15, No Iterations 1
DILUPBiCGStab:  Solving for alpha, Initial residual = 0.0001767301611, Final residual = 1.43267903e-13, No Iterations 1
time step continuity errors : sum local = 5.557798116e-11, global = 6.881689746e-12, cumulative = 8.911681115e-08
ExecutionTime = 102.570663 s  ClockTime = 103 s

Courant Number mean: 0.001943705572 max: 0.1942192831
deltaT = 0.0005099587912
Time = 0.28s

PIMPLE: Iteration 1
diagonal:  Solving for alpha, Initial residual = 0, Final residual = 0, No Iterations 0
DILUPBiCGStab:  Solving for Ux, Initial residual = 0.002193737205, Final residual = 1.378963249e-12, No Iterations 1
DILUPBiCGStab:  Solving for Uy, Initial residual = 0.0002472443819, Final residual = 2.56910504e-13, No Iterations 1
DILUPBiCGStab:  Solving for e, Initial residual = 0.0001490785324, Final residual = 1.592671496e-13, No Iterations 1
DILUPBiCGStab:  Solving for alpha, Initial residual = 0.0004991785021, Final residual = 1.824523662e-12, No Iterations 1
time step continuity errors : sum local = 7.079248709e-10, global = 1.52906952e-10
PIMPLE: Iteration 2
diagonal:  Solving for alpha, Initial residual = 0, Final residual = 0, No Iterations 0
DILUPBiCGStab:  Solving for Ux, Initial residual = 0.0002178235202, Final residual = 9.433395859e-14, No Iterations 1
DILUPBiCGStab:  Solving for Uy, Initial residual = 2.07471009e-05, Final residual = 4.576495572e-15, No Iterations 1
DILUPBiCGStab:  Solving for e, Initial residual = 2.2931276e-05, Final residual = 6.058295901e-15, No Iterations 1
DILUPBiCGStab:  Solving for alpha, Initial residual = 0.0001799492953, Final residual = 5.385870747e-14, No Iterations 1
time step continuity errors : sum local = 2.089213296e-11, global = 9.873776321e-12, cumulative = 8.912668493e-08
ExecutionTime = 103.065334 s  ClockTime = 104 s

Courant Number mean: 0.00195001845 max: 0.1950940566
deltaT = 0.0005128205128
Time = 0.280513s

PIMPLE: Iteration 1
diagonal:  Solving for alpha, Initial residual = 0, Final residual = 0, No Iterations 0
DILUPBiCGStab:  Solving for Ux, Initial residual = 0.002300463482, Final residual = 1.380410167e-12, No Iterations 1
DILUPBiCGStab:  Solving for Uy, Initial residual = 0.0002445548746, Final residual = 2.374527793e-13, No Iterations 1
DILUPBiCGStab:  Solving for e, Initial residual = 0.0001472362172, Final residual = 1.377858979e-13, No Iterations 1
DILUPBiCGStab:  Solving for alpha, Initial residual = 0.0004978599143, Final residual = 1.284741975e-12, No Iterations 1
time step continuity errors : sum local = 4.984318119e-10, global = 1.137183066e-10
PIMPLE: Iteration 2
diagonal:  Solving for alpha, Initial residual = 0, Final residual = 0, No Iterations 0
DILUPBiCGStab:  Solving for Ux, Initial residual = 0.0002027281891, Final residual = 1.073111558e-13, No Iterations 1
DILUPBiCGStab:  Solving for Uy, Initial residual = 2.106549005e-05, Final residual = 4.335132467e-15, No Iterations 1
DILUPBiCGStab:  Solving for e, Initial residual = 2.247122896e-05, Final residual = 5.823263565e-15, No Iterations 1
DILUPBiCGStab:  Solving for alpha, Initial residual = 0.0001745743816, Final residual = 3.820483924e-14, No Iterations 1
time step continuity errors : sum local = 1.481947225e-11, global = 3.673203465e-12, cumulative = 8.913035813e-08
ExecutionTime = 103.397134 s  ClockTime = 104 s

Courant Number mean: 0.001967594192 max: 0.1969906877
deltaT = 0.0005128205128
Time = 0.281026s

PIMPLE: Iteration 1
diagonal:  Solving for alpha, Initial residual = 0, Final residual = 0, No Iterations 0
DILUPBiCGStab:  Solving for Ux, Initial residual = 0.002394273467, Final residual = 1.407035493e-12, No Iterations 1
DILUPBiCGStab:  Solving for Uy, Initial residual = 0.000243913913, Final residual = 2.200785954e-13, No Iterations 1
DILUPBiCGStab:  Solving for e, Initial residual = 0.0001462903045, Final residual = 1.192539465e-13, No Iterations 1
DILUPBiCGStab:  Solving for alpha, Initial residual = 0.000495369072, Final residual = 9.398807752e-13, No Iterations 1
time step continuity errors : sum local = 3.646054751e-10, global = 1.212130202e-10
PIMPLE: Iteration 2
diagonal:  Solving for alpha, Initial residual = 0, Final residual = 0, No Iterations 0
DILUPBiCGStab:  Solving for Ux, Initial residual = 0.0002131761487, Final residual = 1.0779389e-13, No Iterations 1
DILUPBiCGStab:  Solving for Uy, Initial residual = 2.093685194e-05, Final residual = 4.338302046e-15, No Iterations 1
DILUPBiCGStab:  Solving for e, Initial residual = 2.197877361e-05, Final residual = 4.909893188e-15, No Iterations 1
DILUPBiCGStab:  Solving for alpha, Initial residual = 0.0001761655133, Final residual = 4.05304609e-14, No Iterations 1
time step continuity errors : sum local = 1.572229949e-11, global = 5.11637285e-12, cumulative = 8.913547451e-08
ExecutionTime = 103.725624 s  ClockTime = 105 s

Courant Number mean: 0.001974342901 max: 0.1977007426
deltaT = 0.0005128205128
Time = 0.281538s

PIMPLE: Iteration 1
diagonal:  Solving for alpha, Initial residual = 0, Final residual = 0, No Iterations 0
DILUPBiCGStab:  Solving for Ux, Initial residual = 0.002444795025, Final residual = 1.417126774e-12, No Iterations 1
DILUPBiCGStab:  Solving for Uy, Initial residual = 0.0002448966551, Final residual = 2.05207217e-13, No Iterations 1
DILUPBiCGStab:  Solving for e, Initial residual = 0.0001461950833, Final residual = 1.088918485e-13, No Iterations 1
DILUPBiCGStab:  Solving for alpha, Initial residual = 0.000500217598, Final residual = 7.012519488e-13, No Iterations 1
time step continuity errors : sum local = 2.720147881e-10, global = 4.609383117e-11
PIMPLE: Iteration 2
diagonal:  Solving for alpha, Initial residual = 0, Final residual = 0, No Iterations 0
DILUPBiCGStab:  Solving for Ux, Initial residual = 0.0002137861142, Final residual = 1.088044149e-13, No Iterations 1
DILUPBiCGStab:  Solving for Uy, Initial residual = 2.12968847e-05, Final residual = 3.999495534e-15, No Iterations 1
DILUPBiCGStab:  Solving for e, Initial residual = 2.266905221e-05, Final residual = 4.026288869e-15, No Iterations 1
DILUPBiCGStab:  Solving for alpha, Initial residual = 0.0001767351947, Final residual = 7.028418487e-14, No Iterations 1
time step continuity errors : sum local = 2.725655488e-11, global = 1.732867447e-11, cumulative = 8.915280318e-08
ExecutionTime = 104.065942 s  ClockTime = 105 s

Courant Number mean: 0.001981358136 max: 0.19830951
deltaT = 0.0005128205128
Time = 0.282051s

PIMPLE: Iteration 1
diagonal:  Solving for alpha, Initial residual = 0, Final residual = 0, No Iterations 0
DILUPBiCGStab:  Solving for Ux, Initial residual = 0.002513257851, Final residual = 1.52152028e-12, No Iterations 1
DILUPBiCGStab:  Solving for Uy, Initial residual = 0.0002449576794, Final residual = 1.937465769e-13, No Iterations 1
DILUPBiCGStab:  Solving for e, Initial residual = 0.000146594326, Final residual = 1.034796556e-13, No Iterations 1
DILUPBiCGStab:  Solving for alpha, Initial residual = 0.0004995681584, Final residual = 5.83196498e-13, No Iterations 1
time step continuity errors : sum local = 2.262067031e-10, global = 5.305432407e-11
PIMPLE: Iteration 2
diagonal:  Solving for alpha, Initial residual = 0, Final residual = 0, No Iterations 0
DILUPBiCGStab:  Solving for Ux, Initial residual = 0.0002107568353, Final residual = 1.294046735e-13, No Iterations 1
DILUPBiCGStab:  Solving for Uy, Initial residual = 2.1645e-05, Final residual = 6.127051874e-15, No Iterations 1
DILUPBiCGStab:  Solving for e, Initial residual = 2.242015787e-05, Final residual = 6.113783043e-15, No Iterations 1
DILUPBiCGStab:  Solving for alpha, Initial residual = 0.0001798248821, Final residual = 1.354147302e-13, No Iterations 1
time step continuity errors : sum local = 5.25108891e-11, global = 4.166397515e-11, cumulative = 8.919446716e-08
ExecutionTime = 104.397903 s  ClockTime = 105 s

Courant Number mean: 0.001988561362 max: 0.1988054652
deltaT = 0.0005128205128
Time = 0.282564s

PIMPLE: Iteration 1
diagonal:  Solving for alpha, Initial residual = 0, Final residual = 0, No Iterations 0
DILUPBiCGStab:  Solving for Ux, Initial residual = 0.002632402485, Final residual = 1.662262699e-12, No Iterations 1
DILUPBiCGStab:  Solving for Uy, Initial residual = 0.0002455933495, Final residual = 1.911428646e-13, No Iterations 1
DILUPBiCGStab:  Solving for e, Initial residual = 0.0001478344294, Final residual = 1.046378532e-13, No Iterations 1
DILUPBiCGStab:  Solving for alpha, Initial residual = 0.0005001369242, Final residual = 5.742631307e-13, No Iterations 1
time step continuity errors : sum local = 2.227264017e-10, global = 1.030630652e-10
PIMPLE: Iteration 2
diagonal:  Solving for alpha, Initial residual = 0, Final residual = 0, No Iterations 0
DILUPBiCGStab:  Solving for Ux, Initial residual = 0.0002144613363, Final residual = 1.309536643e-13, No Iterations 1
DILUPBiCGStab:  Solving for Uy, Initial residual = 2.078438433e-05, Final residual = 7.545178644e-15, No Iterations 1
DILUPBiCGStab:  Solving for e, Initial residual = 2.231274844e-05, Final residual = 7.510535391e-15, No Iterations 1
DILUPBiCGStab:  Solving for alpha, Initial residual = 0.0001759645779, Final residual = 2.411393572e-13, No Iterations 1
time step continuity errors : sum local = 9.349767861e-11, global = 8.277094454e-11, cumulative = 8.92772381e-08
ExecutionTime = 104.733507 s  ClockTime = 106 s

Courant Number mean: 0.001995014771 max: 0.1991761314
deltaT = 0.0005128205128
Time = 0.283077s

PIMPLE: Iteration 1
diagonal:  Solving for alpha, Initial residual = 0, Final residual = 0, No Iterations 0
