/*---------------------------------------------------------------------------*\
  =========                 |
  \\      /  F ield         | OpenFOAM: The Open Source CFD Toolbox
   \\    /   O peration     | Website:  https://openfoam.org
    \\  /    A nd           | Version:  12
     \\/     M anipulation  |
\*---------------------------------------------------------------------------*/
Build  : 12-cc05c1b03c38
Exec   : foamRun
Date   : Oct 11 2024
Time   : 00:35:05
Host   : "DESKTOP-KBPC6IC"
PID    : 11484
I/O    : uncollated
Case   : /home/as/openfoam/OpenFOAM-12/tutorials/incompressibleFluid/airFoil2D
nProcs : 1
sigFpe : Enabling floating point exception trapping (FOAM_SIGFPE).
fileModificationChecking : Monitoring run-time modified files using timeStampMaster (fileModificationSkew 10)
allowSystemOperations : Allowing user-supplied system call operations

// * * * * * * * * * * * * * * * * * * * * * * * * * * * * * * * * * * * * * //
Create time

Create mesh for time = 0

Selecting solver incompressibleFluid
Selecting viscosity model constant
Selecting turbulence model type RAS
Selecting RAS turbulence model SpalartAllmaras
RAS
{
    model           SpalartAllmaras;
    turbulence      on;
    printCoeffs     on;
    sigmaNut        0.66666;
    kappa           0.41;
    Cb1             0.1355;
    Cb2             0.622;
    Cw2             0.3;
    Cw3             2;
    Cv1             7.1;
    Cs              0.3;
}

No MRF models present


SIMPLE: Convergence criteria found
        p: tolerance 1e-05
        U: tolerance 1e-05
        nuTilda: tolerance 1e-05


SIMPLE: Operating solver in steady-state mode with 1 outer corrector
SIMPLE: Operating solver in SIMPLE mode



Starting time loop

Time = 1s

smoothSolver:  Solving for Ux, Initial residual = 1, Final residual = 0.0611362, No Iterations 2
smoothSolver:  Solving for Uy, Initial residual = 1, Final residual = 0.0585177, No Iterations 2
GAMG:  Solving for p, Initial residual = 1, Final residual = 0.0796943, No Iterations 9
time step continuity errors : sum local = 0.00025243, global = -8.28823e-05, cumulative = -8.28823e-05
Selecting patchDistMethod meshWave
smoothSolver:  Solving for nuTilda, Initial residual = 1, Final residual = 0.0447475, No Iterations 2
ExecutionTime = 0.327724 s  ClockTime = 3 s

Time = 2s

smoothSolver:  Solving for Ux, Initial residual = 0.435216, Final residual = 0.0193283, No Iterations 4
smoothSolver:  Solving for Uy, Initial residual = 0.573963, Final residual = 0.0151315, No Iterations 4
GAMG:  Solving for p, Initial residual = 0.116748, Final residual = 0.0109388, No Iterations 5
time step continuity errors : sum local = 0.000471329, global = 0.000181521, cumulative = 9.86387e-05
smoothSolver:  Solving for nuTilda, Initial residual = 0.135493, Final residual = 0.00947002, No Iterations 2
ExecutionTime = 0.35149 s  ClockTime = 3 s

Time = 3s

smoothSolver:  Solving for Ux, Initial residual = 0.167727, Final residual = 0.00713135, No Iterations 4
smoothSolver:  Solving for Uy, Initial residual = 0.158572, Final residual = 0.00482333, No Iterations 4
GAMG:  Solving for p, Initial residual = 0.175228, Final residual = 0.0129661, No Iterations 7
time step continuity errors : sum local = 0.000417397, global = -1.02789e-05, cumulative = 8.83598e-05
smoothSolver:  Solving for nuTilda, Initial residual = 0.129859, Final residual = 0.0123821, No Iterations 2
ExecutionTime = 0.376568 s  ClockTime = 3 s

Time = 4s

smoothSolver:  Solving for Ux, Initial residual = 0.0487712, Final residual = 0.0012589, No Iterations 4
smoothSolver:  Solving for Uy, Initial residual = 0.0578655, Final residual = 0.00173441, No Iterations 4
GAMG:  Solving for p, Initial residual = 0.29953, Final residual = 0.0288762, No Iterations 6
time step continuity errors : sum local = 0.000417635, global = 8.05997e-05, cumulative = 0.000168959
smoothSolver:  Solving for nuTilda, Initial residual = 0.166614, Final residual = 0.00450877, No Iterations 4
ExecutionTime = 0.401591 s  ClockTime = 3 s

Time = 5s

smoothSolver:  Solving for Ux, Initial residual = 0.125634, Final residual = 0.00585356, No Iterations 4
smoothSolver:  Solving for Uy, Initial residual = 0.152361, Final residual = 0.00406178, No Iterations 4
GAMG:  Solving for p, Initial residual = 0.172034, Final residual = 0.011201, No Iterations 5
time step continuity errors : sum local = 0.000348936, global = -8.88515e-05, cumulative = 8.01079e-05
smoothSolver:  Solving for nuTilda, Initial residual = 0.122705, Final residual = 0.00327946, No Iterations 4
ExecutionTime = 0.430835 s  ClockTime = 3 s

Time = 6s

smoothSolver:  Solving for Ux, Initial residual = 0.142442, Final residual = 0.00633214, No Iterations 4
smoothSolver:  Solving for Uy, Initial residual = 0.168708, Final residual = 0.00556085, No Iterations 4
GAMG:  Solving for p, Initial residual = 0.232429, Final residual = 0.0227131, No Iterations 5
time step continuity errors : sum local = 0.000476345, global = 0.000153352, cumulative = 0.00023346
smoothSolver:  Solving for nuTilda, Initial residual = 0.0895787, Final residual = 0.00244831, No Iterations 4
ExecutionTime = 0.470793 s  ClockTime = 3 s

Time = 7s

smoothSolver:  Solving for Ux, Initial residual = 0.0996251, Final residual = 0.00859043, No Iterations 2
smoothSolver:  Solving for Uy, Initial residual = 0.124301, Final residual = 0.00849189, No Iterations 2
GAMG:  Solving for p, Initial residual = 0.388017, Final residual = 0.030083, No Iterations 6
time step continuity errors : sum local = 0.000343644, global = 0.000109941, cumulative = 0.000343401
smoothSolver:  Solving for nuTilda, Initial residual = 0.0707548, Final residual = 0.00202061, No Iterations 4
ExecutionTime = 0.50386 s  ClockTime = 3 s

Time = 8s

smoothSolver:  Solving for Ux, Initial residual = 0.114706, Final residual = 0.00386158, No Iterations 4
smoothSolver:  Solving for Uy, Initial residual = 0.12064, Final residual = 0.00901836, No Iterations 2
GAMG:  Solving for p, Initial residual = 0.245015, Final residual = 0.0159013, No Iterations 5
time step continuity errors : sum local = 0.000322167, global = -7.26309e-05, cumulative = 0.00027077
smoothSolver:  Solving for nuTilda, Initial residual = 0.0569911, Final residual = 0.00171485, No Iterations 4
ExecutionTime = 0.533136 s  ClockTime = 3 s

Time = 9s

smoothSolver:  Solving for Ux, Initial residual = 0.0767054, Final residual = 0.00274277, No Iterations 4
smoothSolver:  Solving for Uy, Initial residual = 0.0796227, Final residual = 0.00757784, No Iterations 2
GAMG:  Solving for p, Initial residual = 0.32724, Final residual = 0.0235151, No Iterations 5
time step continuity errors : sum local = 0.000297267, global = 3.881e-05, cumulative = 0.00030958
smoothSolver:  Solving for nuTilda, Initial residual = 0.0446871, Final residual = 0.00143873, No Iterations 4
ExecutionTime = 0.560772 s  ClockTime = 3 s

Time = 10s

smoothSolver:  Solving for Ux, Initial residual = 0.0545178, Final residual = 0.00146513, No Iterations 4
smoothSolver:  Solving for Uy, Initial residual = 0.068899, Final residual = 0.00651967, No Iterations 2
GAMG:  Solving for p, Initial residual = 0.340054, Final residual = 0.0307457, No Iterations 5
time step continuity errors : sum local = 0.000346165, global = -9.93686e-05, cumulative = 0.000210212
smoothSolver:  Solving for nuTilda, Initial residual = 0.0396943, Final residual = 0.00123309, No Iterations 4
ExecutionTime = 0.591229 s  ClockTime = 3 s

Time = 11s

smoothSolver:  Solving for Ux, Initial residual = 0.0631206, Final residual = 0.00204774, No Iterations 4
smoothSolver:  Solving for Uy, Initial residual = 0.0754042, Final residual = 0.00748041, No Iterations 2
GAMG:  Solving for p, Initial residual = 0.259556, Final residual = 0.0196283, No Iterations 5
time step continuity errors : sum local = 0.000326718, global = 6.49922e-05, cumulative = 0.000275204
smoothSolver:  Solving for nuTilda, Initial residual = 0.0373999, Final residual = 0.00113098, No Iterations 4
ExecutionTime = 0.62077 s  ClockTime = 3 s

Time = 12s

smoothSolver:  Solving for Ux, Initial residual = 0.0643213, Final residual = 0.00221965, No Iterations 4
smoothSolver:  Solving for Uy, Initial residual = 0.0680098, Final residual = 0.00203591, No Iterations 4
GAMG:  Solving for p, Initial residual = 0.324012, Final residual = 0.0225588, No Iterations 5
time step continuity errors : sum local = 0.0002612, global = -3.52639e-05, cumulative = 0.00023994
smoothSolver:  Solving for nuTilda, Initial residual = 0.0342624, Final residual = 0.00106338, No Iterations 4
ExecutionTime = 0.650261 s  ClockTime = 3 s

Time = 13s

smoothSolver:  Solving for Ux, Initial residual = 0.0586953, Final residual = 0.00482731, No Iterations 2
smoothSolver:  Solving for Uy, Initial residual = 0.0692462, Final residual = 0.00504408, No Iterations 2
GAMG:  Solving for p, Initial residual = 0.465424, Final residual = 0.0350288, No Iterations 6
time step continuity errors : sum local = 0.000253597, global = -5.90766e-05, cumulative = 0.000180863
smoothSolver:  Solving for nuTilda, Initial residual = 0.0320881, Final residual = 0.000985261, No Iterations 4
ExecutionTime = 0.680348 s  ClockTime = 3 s

Time = 14s

smoothSolver:  Solving for Ux, Initial residual = 0.0579807, Final residual = 0.00536647, No Iterations 2
smoothSolver:  Solving for Uy, Initial residual = 0.0634387, Final residual = 0.00388571, No Iterations 2
GAMG:  Solving for p, Initial residual = 0.344452, Final residual = 0.0245247, No Iterations 6
time step continuity errors : sum local = 0.000262705, global = -5.77139e-05, cumulative = 0.000123149
smoothSolver:  Solving for nuTilda, Initial residual = 0.0296448, Final residual = 0.000929086, No Iterations 4
ExecutionTime = 0.711293 s  ClockTime = 3 s

Time = 15s

smoothSolver:  Solving for Ux, Initial residual = 0.0500966, Final residual = 0.00152228, No Iterations 4
smoothSolver:  Solving for Uy, Initial residual = 0.0539207, Final residual = 0.00415341, No Iterations 2
GAMG:  Solving for p, Initial residual = 0.437082, Final residual = 0.0358223, No Iterations 5
time step continuity errors : sum local = 0.000270929, global = 6.84602e-05, cumulative = 0.00019161
smoothSolver:  Solving for nuTilda, Initial residual = 0.028819, Final residual = 0.000865068, No Iterations 4
ExecutionTime = 0.76302 s  ClockTime = 3 s

Time = 16s

smoothSolver:  Solving for Ux, Initial residual = 0.0439296, Final residual = 0.00121803, No Iterations 4
smoothSolver:  Solving for Uy, Initial residual = 0.0524442, Final residual = 0.00473005, No Iterations 2
GAMG:  Solving for p, Initial residual = 0.377629, Final residual = 0.0375268, No Iterations 4
time step continuity errors : sum local = 0.000301304, global = 4.57826e-05, cumulative = 0.000237392
smoothSolver:  Solving for nuTilda, Initial residual = 0.026926, Final residual = 0.000819225, No Iterations 4
ExecutionTime = 0.795606 s  ClockTime = 3 s

Time = 17s

smoothSolver:  Solving for Ux, Initial residual = 0.0451145, Final residual = 0.00120726, No Iterations 4
smoothSolver:  Solving for Uy, Initial residual = 0.0524419, Final residual = 0.00520903, No Iterations 2
GAMG:  Solving for p, Initial residual = 0.277733, Final residual = 0.0260495, No Iterations 5
time step continuity errors : sum local = 0.000298795, global = -9.70617e-05, cumulative = 0.000140331
smoothSolver:  Solving for nuTilda, Initial residual = 0.0264719, Final residual = 0.000781879, No Iterations 4
ExecutionTime = 0.824118 s  ClockTime = 3 s

Time = 18s

smoothSolver:  Solving for Ux, Initial residual = 0.0436913, Final residual = 0.00144789, No Iterations 4
smoothSolver:  Solving for Uy, Initial residual = 0.0478296, Final residual = 0.0015258, No Iterations 4
GAMG:  Solving for p, Initial residual = 0.284415, Final residual = 0.022658, No Iterations 5
time step continuity errors : sum local = 0.000235347, global = 6.04756e-05, cumulative = 0.000200806
smoothSolver:  Solving for nuTilda, Initial residual = 0.0251635, Final residual = 0.000751222, No Iterations 4
ExecutionTime = 0.865473 s  ClockTime = 3 s

Time = 19s

smoothSolver:  Solving for Ux, Initial residual = 0.0415431, Final residual = 0.00357704, No Iterations 2
smoothSolver:  Solving for Uy, Initial residual = 0.0475328, Final residual = 0.00427564, No Iterations 2
GAMG:  Solving for p, Initial residual = 0.506922, Final residual = 0.0389763, No Iterations 4
time step continuity errors : sum local = 0.000209933, global = 8.88521e-06, cumulative = 0.000209691
smoothSolver:  Solving for nuTilda, Initial residual = 0.024193, Final residual = 0.000714951, No Iterations 4
ExecutionTime = 0.897279 s  ClockTime = 3 s

Time = 20s

smoothSolver:  Solving for Ux, Initial residual = 0.0398996, Final residual = 0.00333541, No Iterations 2
smoothSolver:  Solving for Uy, Initial residual = 0.0481307, Final residual = 0.00333578, No Iterations 2
GAMG:  Solving for p, Initial residual = 0.393774, Final residual = 0.0320974, No Iterations 4
time step continuity errors : sum local = 0.000226582, global = -3.59552e-06, cumulative = 0.000206096
smoothSolver:  Solving for nuTilda, Initial residual = 0.0233369, Final residual = 0.000677487, No Iterations 4
ExecutionTime = 0.930032 s  ClockTime = 3 s

Time = 21s

smoothSolver:  Solving for Ux, Initial residual = 0.0381759, Final residual = 0.00113613, No Iterations 4
smoothSolver:  Solving for Uy, Initial residual = 0.0428592, Final residual = 0.00342671, No Iterations 2
GAMG:  Solving for p, Initial residual = 0.369654, Final residual = 0.0360941, No Iterations 5
time step continuity errors : sum local = 0.000255978, global = 5.77046e-05, cumulative = 0.0002638
smoothSolver:  Solving for nuTilda, Initial residual = 0.0223182, Final residual = 0.000639929, No Iterations 4
ExecutionTime = 0.960131 s  ClockTime = 3 s

Time = 22s

smoothSolver:  Solving for Ux, Initial residual = 0.0336336, Final residual = 0.00100019, No Iterations 4
smoothSolver:  Solving for Uy, Initial residual = 0.0387248, Final residual = 0.00107238, No Iterations 4
GAMG:  Solving for p, Initial residual = 0.466437, Final residual = 0.0426451, No Iterations 4
time step continuity errors : sum local = 0.000229276, global = 3.9245e-05, cumulative = 0.000303045
smoothSolver:  Solving for nuTilda, Initial residual = 0.0219169, Final residual = 0.000594615, No Iterations 4
ExecutionTime = 0.987876 s  ClockTime = 4 s

Time = 23s

smoothSolver:  Solving for Ux, Initial residual = 0.0325406, Final residual = 0.00316363, No Iterations 2
smoothSolver:  Solving for Uy, Initial residual = 0.0395025, Final residual = 0.00381954, No Iterations 2
GAMG:  Solving for p, Initial residual = 0.277734, Final residual = 0.0247719, No Iterations 4
time step continuity errors : sum local = 0.000211952, global = 4.00269e-05, cumulative = 0.000343072
smoothSolver:  Solving for nuTilda, Initial residual = 0.0209178, Final residual = 0.00054181, No Iterations 4
ExecutionTime = 1.0136 s  ClockTime = 4 s

Time = 24s

smoothSolver:  Solving for Ux, Initial residual = 0.0349162, Final residual = 0.00111594, No Iterations 4
smoothSolver:  Solving for Uy, Initial residual = 0.0391432, Final residual = 0.00118227, No Iterations 4
GAMG:  Solving for p, Initial residual = 0.241532, Final residual = 0.0216416, No Iterations 5
time step continuity errors : sum local = 0.000208691, global = -7.14765e-05, cumulative = 0.000271596
smoothSolver:  Solving for nuTilda, Initial residual = 0.0204423, Final residual = 0.000493995, No Iterations 4
ExecutionTime = 1.04134 s  ClockTime = 4 s

Time = 25s

smoothSolver:  Solving for Ux, Initial residual = 0.0329996, Final residual = 0.00107729, No Iterations 4
smoothSolver:  Solving for Uy, Initial residual = 0.0360757, Final residual = 0.00109333, No Iterations 4
GAMG:  Solving for p, Initial residual = 0.280591, Final residual = 0.0246661, No Iterations 5
time step continuity errors : sum local = 0.000197983, global = 5.30917e-05, cumulative = 0.000324688
smoothSolver:  Solving for nuTilda, Initial residual = 0.0197733, Final residual = 0.000465916, No Iterations 4
ExecutionTime = 1.06927 s  ClockTime = 4 s

Time = 26s

smoothSolver:  Solving for Ux, Initial residual = 0.0307349, Final residual = 0.00248831, No Iterations 2
smoothSolver:  Solving for Uy, Initial residual = 0.0347153, Final residual = 0.00306201, No Iterations 2
GAMG:  Solving for p, Initial residual = 0.436093, Final residual = 0.0380156, No Iterations 4
time step continuity errors : sum local = 0.000180958, global = 2.2929e-05, cumulative = 0.000347617
smoothSolver:  Solving for nuTilda, Initial residual = 0.0191228, Final residual = 0.000435527, No Iterations 4
ExecutionTime = 1.09482 s  ClockTime = 4 s

Time = 27s

smoothSolver:  Solving for Ux, Initial residual = 0.0298, Final residual = 0.00280589, No Iterations 2
smoothSolver:  Solving for Uy, Initial residual = 0.0338194, Final residual = 0.00267754, No Iterations 2
GAMG:  Solving for p, Initial residual = 0.367851, Final residual = 0.0245329, No Iterations 6
time step continuity errors : sum local = 0.00013204, global = 3.10786e-05, cumulative = 0.000378695
smoothSolver:  Solving for nuTilda, Initial residual = 0.0186248, Final residual = 0.000398697, No Iterations 4
ExecutionTime = 1.1226 s  ClockTime = 4 s

Time = 28s

smoothSolver:  Solving for Ux, Initial residual = 0.0283511, Final residual = 0.000890256, No Iterations 4
smoothSolver:  Solving for Uy, Initial residual = 0.0298811, Final residual = 0.0028418, No Iterations 2
GAMG:  Solving for p, Initial residual = 0.388944, Final residual = 0.0316609, No Iterations 6
time step continuity errors : sum local = 0.000154909, global = 4.22733e-05, cumulative = 0.000420968
smoothSolver:  Solving for nuTilda, Initial residual = 0.0183205, Final residual = 0.000361945, No Iterations 4
ExecutionTime = 1.15142 s  ClockTime = 4 s

Time = 29s

smoothSolver:  Solving for Ux, Initial residual = 0.0255499, Final residual = 0.000726622, No Iterations 4
smoothSolver:  Solving for Uy, Initial residual = 0.026501, Final residual = 0.000800666, No Iterations 4
GAMG:  Solving for p, Initial residual = 0.324758, Final residual = 0.032272, No Iterations 5
time step continuity errors : sum local = 0.000179488, global = -5.05339e-05, cumulative = 0.000370435
smoothSolver:  Solving for nuTilda, Initial residual = 0.0179519, Final residual = 0.000345239, No Iterations 4
ExecutionTime = 1.17923 s  ClockTime = 4 s

Time = 30s

smoothSolver:  Solving for Ux, Initial residual = 0.0265507, Final residual = 0.000744647, No Iterations 4
smoothSolver:  Solving for Uy, Initial residual = 0.0271992, Final residual = 0.000777573, No Iterations 4
GAMG:  Solving for p, Initial residual = 0.220965, Final residual = 0.0200244, No Iterations 4
time step continuity errors : sum local = 0.000151031, global = -3.22151e-05, cumulative = 0.000338219
smoothSolver:  Solving for nuTilda, Initial residual = 0.017503, Final residual = 0.000324835, No Iterations 4
ExecutionTime = 1.21126 s  ClockTime = 4 s

Time = 31s

smoothSolver:  Solving for Ux, Initial residual = 0.0275978, Final residual = 0.000932003, No Iterations 4
smoothSolver:  Solving for Uy, Initial residual = 0.0262001, Final residual = 0.000793534, No Iterations 4
GAMG:  Solving for p, Initial residual = 0.201079, Final residual = 0.0137855, No Iterations 6
time step continuity errors : sum local = 0.000108789, global = -2.99842e-05, cumulative = 0.000308235
smoothSolver:  Solving for nuTilda, Initial residual = 0.0172631, Final residual = 0.000306336, No Iterations 4
ExecutionTime = 1.24048 s  ClockTime = 4 s

Time = 32s

smoothSolver:  Solving for Ux, Initial residual = 0.0255142, Final residual = 0.000806166, No Iterations 4
smoothSolver:  Solving for Uy, Initial residual = 0.0235764, Final residual = 0.000725172, No Iterations 4
GAMG:  Solving for p, Initial residual = 0.229759, Final residual = 0.0202044, No Iterations 6
time step continuity errors : sum local = 0.000130874, global = -3.57195e-05, cumulative = 0.000272516
smoothSolver:  Solving for nuTilda, Initial residual = 0.0170918, Final residual = 0.000300973, No Iterations 4
ExecutionTime = 1.27022 s  ClockTime = 4 s

Time = 33s

smoothSolver:  Solving for Ux, Initial residual = 0.0231714, Final residual = 0.00220821, No Iterations 2
smoothSolver:  Solving for Uy, Initial residual = 0.0212631, Final residual = 0.00206832, No Iterations 2
GAMG:  Solving for p, Initial residual = 0.28649, Final residual = 0.025655, No Iterations 6
time step continuity errors : sum local = 0.000121607, global = -3.13841e-05, cumulative = 0.000241132
smoothSolver:  Solving for nuTilda, Initial residual = 0.0170496, Final residual = 0.00029667, No Iterations 4
ExecutionTime = 1.29884 s  ClockTime = 4 s

Time = 34s

smoothSolver:  Solving for Ux, Initial residual = 0.0234519, Final residual = 0.000679734, No Iterations 4
smoothSolver:  Solving for Uy, Initial residual = 0.0205673, Final residual = 0.00184002, No Iterations 2
GAMG:  Solving for p, Initial residual = 0.320244, Final residual = 0.0278879, No Iterations 6
time step continuity errors : sum local = 0.000113726, global = -2.43243e-05, cumulative = 0.000216807
smoothSolver:  Solving for nuTilda, Initial residual = 0.0171562, Final residual = 0.000298926, No Iterations 4
ExecutionTime = 1.32296 s  ClockTime = 4 s

Time = 35s

smoothSolver:  Solving for Ux, Initial residual = 0.0228253, Final residual = 0.000696379, No Iterations 4
smoothSolver:  Solving for Uy, Initial residual = 0.0189188, Final residual = 0.000534066, No Iterations 4
GAMG:  Solving for p, Initial residual = 0.286238, Final residual = 0.0253126, No Iterations 6
time step continuity errors : sum local = 0.000109744, global = -1.59267e-05, cumulative = 0.000200881
smoothSolver:  Solving for nuTilda, Initial residual = 0.0171381, Final residual = 0.00029903, No Iterations 4
ExecutionTime = 1.3503 s  ClockTime = 4 s

Time = 36s

smoothSolver:  Solving for Ux, Initial residual = 0.021591, Final residual = 0.000591623, No Iterations 4
smoothSolver:  Solving for Uy, Initial residual = 0.0175641, Final residual = 0.000602066, No Iterations 4
GAMG:  Solving for p, Initial residual = 0.216532, Final residual = 0.0184029, No Iterations 6
time step continuity errors : sum local = 9.77627e-05, global = 1.76934e-05, cumulative = 0.000218574
smoothSolver:  Solving for nuTilda, Initial residual = 0.0172363, Final residual = 0.000298188, No Iterations 4
ExecutionTime = 1.37453 s  ClockTime = 4 s

Time = 37s

smoothSolver:  Solving for Ux, Initial residual = 0.0213422, Final residual = 0.000639585, No Iterations 4
smoothSolver:  Solving for Uy, Initial residual = 0.0176174, Final residual = 0.00062683, No Iterations 4
GAMG:  Solving for p, Initial residual = 0.173107, Final residual = 0.0152818, No Iterations 6
time step continuity errors : sum local = 9.3336e-05, global = 1.9602e-05, cumulative = 0.000238176
smoothSolver:  Solving for nuTilda, Initial residual = 0.0175555, Final residual = 0.000297325, No Iterations 4
ExecutionTime = 1.3997 s  ClockTime = 4 s

Time = 38s

smoothSolver:  Solving for Ux, Initial residual = 0.0210283, Final residual = 0.000720347, No Iterations 4
smoothSolver:  Solving for Uy, Initial residual = 0.0164711, Final residual = 0.000604302, No Iterations 4
GAMG:  Solving for p, Initial residual = 0.159917, Final residual = 0.0151221, No Iterations 5
time step continuity errors : sum local = 9.12842e-05, global = -2.80174e-05, cumulative = 0.000210159
smoothSolver:  Solving for nuTilda, Initial residual = 0.0178648, Final residual = 0.000296988, No Iterations 4
ExecutionTime = 1.42276 s  ClockTime = 4 s

Time = 39s

smoothSolver:  Solving for Ux, Initial residual = 0.0198522, Final residual = 0.000662167, No Iterations 4
smoothSolver:  Solving for Uy, Initial residual = 0.0147795, Final residual = 0.00053291, No Iterations 4
GAMG:  Solving for p, Initial residual = 0.164823, Final residual = 0.0128005, No Iterations 6
time step continuity errors : sum local = 7.0279e-05, global = -1.76068e-05, cumulative = 0.000192552
smoothSolver:  Solving for nuTilda, Initial residual = 0.0180556, Final residual = 0.000295952, No Iterations 4
ExecutionTime = 1.44695 s  ClockTime = 4 s

Time = 40s

smoothSolver:  Solving for Ux, Initial residual = 0.0190419, Final residual = 0.00056926, No Iterations 4
smoothSolver:  Solving for Uy, Initial residual = 0.0135509, Final residual = 0.00044418, No Iterations 4
GAMG:  Solving for p, Initial residual = 0.178447, Final residual = 0.0161446, No Iterations 7
time step continuity errors : sum local = 7.79254e-05, global = 1.75895e-05, cumulative = 0.000210141
smoothSolver:  Solving for nuTilda, Initial residual = 0.0183126, Final residual = 0.00182933, No Iterations 2
ExecutionTime = 1.47493 s  ClockTime = 4 s

Time = 41s

smoothSolver:  Solving for Ux, Initial residual = 0.0190562, Final residual = 0.000557666, No Iterations 4
smoothSolver:  Solving for Uy, Initial residual = 0.0136053, Final residual = 0.000439739, No Iterations 4
GAMG:  Solving for p, Initial residual = 0.172752, Final residual = 0.0137544, No Iterations 7
time step continuity errors : sum local = 6.32799e-05, global = 1.63414e-05, cumulative = 0.000226483
smoothSolver:  Solving for nuTilda, Initial residual = 0.0184237, Final residual = 0.00183202, No Iterations 2
ExecutionTime = 1.50064 s  ClockTime = 4 s

Time = 42s

smoothSolver:  Solving for Ux, Initial residual = 0.0187536, Final residual = 0.00052235, No Iterations 4
smoothSolver:  Solving for Uy, Initial residual = 0.0138433, Final residual = 0.000489512, No Iterations 4
GAMG:  Solving for p, Initial residual = 0.149831, Final residual = 0.0143767, No Iterations 5
time step continuity errors : sum local = 7.01488e-05, global = 2.0995e-05, cumulative = 0.000247478
smoothSolver:  Solving for nuTilda, Initial residual = 0.0185751, Final residual = 0.00182752, No Iterations 2
ExecutionTime = 1.52301 s  ClockTime = 4 s

Time = 43s

smoothSolver:  Solving for Ux, Initial residual = 0.0183521, Final residual = 0.000512328, No Iterations 4
smoothSolver:  Solving for Uy, Initial residual = 0.0140117, Final residual = 0.000527837, No Iterations 4
GAMG:  Solving for p, Initial residual = 0.130152, Final residual = 0.0115516, No Iterations 6
time step continuity errors : sum local = 6.13506e-05, global = 1.6235e-05, cumulative = 0.000263713
smoothSolver:  Solving for nuTilda, Initial residual = 0.0186848, Final residual = 0.00181979, No Iterations 2
ExecutionTime = 1.54719 s  ClockTime = 4 s

Time = 44s

smoothSolver:  Solving for Ux, Initial residual = 0.0179357, Final residual = 0.000542165, No Iterations 4
smoothSolver:  Solving for Uy, Initial residual = 0.0136659, Final residual = 0.000524894, No Iterations 4
GAMG:  Solving for p, Initial residual = 0.119627, Final residual = 0.0104776, No Iterations 8
time step continuity errors : sum local = 5.79393e-05, global = 1.48289e-05, cumulative = 0.000278542
smoothSolver:  Solving for nuTilda, Initial residual = 0.0187358, Final residual = 0.00180722, No Iterations 2
ExecutionTime = 1.57316 s  ClockTime = 4 s

Time = 45s

smoothSolver:  Solving for Ux, Initial residual = 0.0172033, Final residual = 0.000547817, No Iterations 4
smoothSolver:  Solving for Uy, Initial residual = 0.0127818, Final residual = 0.000500525, No Iterations 4
GAMG:  Solving for p, Initial residual = 0.11697, Final residual = 0.0105381, No Iterations 7
time step continuity errors : sum local = 5.64462e-05, global = -1.35077e-05, cumulative = 0.000265034
smoothSolver:  Solving for nuTilda, Initial residual = 0.01873, Final residual = 0.00179247, No Iterations 2
ExecutionTime = 1.59889 s  ClockTime = 4 s

Time = 46s

smoothSolver:  Solving for Ux, Initial residual = 0.0164776, Final residual = 0.000503948, No Iterations 4
smoothSolver:  Solving for Uy, Initial residual = 0.0119996, Final residual = 0.000468359, No Iterations 4
GAMG:  Solving for p, Initial residual = 0.111621, Final residual = 0.0110483, No Iterations 6
time step continuity errors : sum local = 5.58577e-05, global = 1.18565e-05, cumulative = 0.00027689
smoothSolver:  Solving for nuTilda, Initial residual = 0.0187141, Final residual = 0.0017726, No Iterations 2
ExecutionTime = 1.62261 s  ClockTime = 4 s

Time = 47s

smoothSolver:  Solving for Ux, Initial residual = 0.0162376, Final residual = 0.000459548, No Iterations 4
smoothSolver:  Solving for Uy, Initial residual = 0.0114673, Final residual = 0.000442978, No Iterations 4
GAMG:  Solving for p, Initial residual = 0.106667, Final residual = 0.00827396, No Iterations 7
time step continuity errors : sum local = 3.99431e-05, global = -1.07371e-05, cumulative = 0.000266153
smoothSolver:  Solving for nuTilda, Initial residual = 0.0186663, Final residual = 0.00174894, No Iterations 2
ExecutionTime = 1.64876 s  ClockTime = 4 s

Time = 48s

smoothSolver:  Solving for Ux, Initial residual = 0.016067, Final residual = 0.000430547, No Iterations 4
smoothSolver:  Solving for Uy, Initial residual = 0.0113048, Final residual = 0.000423342, No Iterations 4
GAMG:  Solving for p, Initial residual = 0.0989347, Final residual = 0.00852807, No Iterations 6
time step continuity errors : sum local = 4.1882e-05, global = -9.26787e-06, cumulative = 0.000256885
smoothSolver:  Solving for nuTilda, Initial residual = 0.0186136, Final residual = 0.00172168, No Iterations 2
ExecutionTime = 1.67399 s  ClockTime = 4 s

Time = 49s

smoothSolver:  Solving for Ux, Initial residual = 0.0160007, Final residual = 0.000425731, No Iterations 4
smoothSolver:  Solving for Uy, Initial residual = 0.0115422, Final residual = 0.000419038, No Iterations 4
GAMG:  Solving for p, Initial residual = 0.0904249, Final residual = 0.00782565, No Iterations 8
time step continuity errors : sum local = 4.04747e-05, global = -1.04056e-05, cumulative = 0.00024648
smoothSolver:  Solving for nuTilda, Initial residual = 0.0185475, Final residual = 0.00168843, No Iterations 2
ExecutionTime = 1.69966 s  ClockTime = 4 s

Time = 50s

smoothSolver:  Solving for Ux, Initial residual = 0.0158578, Final residual = 0.000447086, No Iterations 4
smoothSolver:  Solving for Uy, Initial residual = 0.0118293, Final residual = 0.00042466, No Iterations 4
GAMG:  Solving for p, Initial residual = 0.0812201, Final residual = 0.00796122, No Iterations 7
time step continuity errors : sum local = 4.28561e-05, global = 1.01659e-05, cumulative = 0.000256646
smoothSolver:  Solving for nuTilda, Initial residual = 0.0184869, Final residual = 0.00165849, No Iterations 2
ExecutionTime = 1.78254 s  ClockTime = 4 s

Time = 51s

smoothSolver:  Solving for Ux, Initial residual = 0.0152335, Final residual = 0.000463005, No Iterations 4
smoothSolver:  Solving for Uy, Initial residual = 0.0117542, Final residual = 0.000439414, No Iterations 4
GAMG:  Solving for p, Initial residual = 0.0738252, Final residual = 0.00665263, No Iterations 7
time step continuity errors : sum local = 3.55538e-05, global = 8.09244e-06, cumulative = 0.000264738
smoothSolver:  Solving for nuTilda, Initial residual = 0.0183979, Final residual = 0.00162372, No Iterations 2
ExecutionTime = 1.81139 s  ClockTime = 4 s

Time = 52s

smoothSolver:  Solving for Ux, Initial residual = 0.0146553, Final residual = 0.000455435, No Iterations 4
smoothSolver:  Solving for Uy, Initial residual = 0.0113733, Final residual = 0.000455432, No Iterations 4
GAMG:  Solving for p, Initial residual = 0.069688, Final residual = 0.00554841, No Iterations 6
time step continuity errors : sum local = 2.85035e-05, global = -5.62143e-06, cumulative = 0.000259117
smoothSolver:  Solving for nuTilda, Initial residual = 0.0183126, Final residual = 0.00158446, No Iterations 2
ExecutionTime = 1.83694 s  ClockTime = 4 s

Time = 53s

smoothSolver:  Solving for Ux, Initial residual = 0.0144579, Final residual = 0.000439897, No Iterations 4
smoothSolver:  Solving for Uy, Initial residual = 0.0106516, Final residual = 0.000440129, No Iterations 4
GAMG:  Solving for p, Initial residual = 0.0670074, Final residual = 0.00530756, No Iterations 6
time step continuity errors : sum local = 2.63005e-05, global = 5.31892e-06, cumulative = 0.000264436
smoothSolver:  Solving for nuTilda, Initial residual = 0.0181817, Final residual = 0.00154679, No Iterations 2
ExecutionTime = 1.86047 s  ClockTime = 4 s

Time = 54s

smoothSolver:  Solving for Ux, Initial residual = 0.0144492, Final residual = 0.000424769, No Iterations 4
smoothSolver:  Solving for Uy, Initial residual = 0.00988775, Final residual = 0.00039952, No Iterations 4
GAMG:  Solving for p, Initial residual = 0.0660289, Final residual = 0.00610341, No Iterations 7
time step continuity errors : sum local = 2.98717e-05, global = -7.28088e-06, cumulative = 0.000257155
smoothSolver:  Solving for nuTilda, Initial residual = 0.018069, Final residual = 0.0015067, No Iterations 2
ExecutionTime = 1.888 s  ClockTime = 5 s

Time = 55s

smoothSolver:  Solving for Ux, Initial residual = 0.0141376, Final residual = 0.000404668, No Iterations 4
smoothSolver:  Solving for Uy, Initial residual = 0.00961883, Final residual = 0.000355369, No Iterations 4
GAMG:  Solving for p, Initial residual = 0.0605424, Final residual = 0.00468061, No Iterations 7
time step continuity errors : sum local = 2.34475e-05, global = -5.57298e-06, cumulative = 0.000251582
smoothSolver:  Solving for nuTilda, Initial residual = 0.0179519, Final residual = 0.00146597, No Iterations 2
ExecutionTime = 1.91332 s  ClockTime = 5 s

Time = 56s

smoothSolver:  Solving for Ux, Initial residual = 0.0138313, Final residual = 0.000390957, No Iterations 4
smoothSolver:  Solving for Uy, Initial residual = 0.00968893, Final residual = 0.000343428, No Iterations 4
GAMG:  Solving for p, Initial residual = 0.0525736, Final residual = 0.00499823, No Iterations 5
time step continuity errors : sum local = 2.57731e-05, global = -6.6668e-06, cumulative = 0.000244915
smoothSolver:  Solving for nuTilda, Initial residual = 0.0178569, Final residual = 0.00142895, No Iterations 2
ExecutionTime = 1.93589 s  ClockTime = 5 s

Time = 57s

smoothSolver:  Solving for Ux, Initial residual = 0.0135117, Final residual = 0.000389681, No Iterations 4
smoothSolver:  Solving for Uy, Initial residual = 0.00978592, Final residual = 0.000360754, No Iterations 4
GAMG:  Solving for p, Initial residual = 0.0472576, Final residual = 0.0040221, No Iterations 6
time step continuity errors : sum local = 2.0984e-05, global = 2.53418e-06, cumulative = 0.000247449
smoothSolver:  Solving for nuTilda, Initial residual = 0.0177103, Final residual = 0.00139272, No Iterations 2
ExecutionTime = 1.96005 s  ClockTime = 5 s

Time = 58s

smoothSolver:  Solving for Ux, Initial residual = 0.013231, Final residual = 0.00039422, No Iterations 4
smoothSolver:  Solving for Uy, Initial residual = 0.00956211, Final residual = 0.000378881, No Iterations 4
GAMG:  Solving for p, Initial residual = 0.045438, Final residual = 0.00357974, No Iterations 8
time step continuity errors : sum local = 1.83673e-05, global = -4.87649e-06, cumulative = 0.000242573
smoothSolver:  Solving for nuTilda, Initial residual = 0.0175932, Final residual = 0.00135893, No Iterations 2
ExecutionTime = 1.98752 s  ClockTime = 5 s

Time = 59s

smoothSolver:  Solving for Ux, Initial residual = 0.0129097, Final residual = 0.000391212, No Iterations 4
smoothSolver:  Solving for Uy, Initial residual = 0.00902805, Final residual = 0.000373637, No Iterations 4
GAMG:  Solving for p, Initial residual = 0.0458411, Final residual = 0.00444474, No Iterations 7
time step continuity errors : sum local = 2.2195e-05, global = 5.3603e-06, cumulative = 0.000247933
smoothSolver:  Solving for nuTilda, Initial residual = 0.01747, Final residual = 0.00132791, No Iterations 2
ExecutionTime = 2.0192 s  ClockTime = 5 s

Time = 60s

smoothSolver:  Solving for Ux, Initial residual = 0.0125574, Final residual = 0.000383119, No Iterations 4
smoothSolver:  Solving for Uy, Initial residual = 0.00853978, Final residual = 0.000351011, No Iterations 4
GAMG:  Solving for p, Initial residual = 0.0442883, Final residual = 0.00421848, No Iterations 5
time step continuity errors : sum local = 2.07585e-05, global = 5.52601e-06, cumulative = 0.000253459
smoothSolver:  Solving for nuTilda, Initial residual = 0.0173454, Final residual = 0.0013044, No Iterations 2
ExecutionTime = 2.04316 s  ClockTime = 5 s

Time = 61s

smoothSolver:  Solving for Ux, Initial residual = 0.0121392, Final residual = 0.000368733, No Iterations 4
smoothSolver:  Solving for Uy, Initial residual = 0.00823837, Final residual = 0.000330423, No Iterations 4
GAMG:  Solving for p, Initial residual = 0.0411575, Final residual = 0.0034339, No Iterations 5
time step continuity errors : sum local = 1.69969e-05, global = 4.7371e-06, cumulative = 0.000258196
smoothSolver:  Solving for nuTilda, Initial residual = 0.0172979, Final residual = 0.00128345, No Iterations 2
ExecutionTime = 2.079 s  ClockTime = 5 s

Time = 62s

smoothSolver:  Solving for Ux, Initial residual = 0.0117229, Final residual = 0.000350565, No Iterations 4
smoothSolver:  Solving for Uy, Initial residual = 0.00808123, Final residual = 0.000320159, No Iterations 4
GAMG:  Solving for p, Initial residual = 0.0375655, Final residual = 0.00290433, No Iterations 6
time step continuity errors : sum local = 1.46378e-05, global = -2.50672e-06, cumulative = 0.000255689
smoothSolver:  Solving for nuTilda, Initial residual = 0.0172444, Final residual = 0.00126295, No Iterations 2
ExecutionTime = 2.11592 s  ClockTime = 5 s

Time = 63s

smoothSolver:  Solving for Ux, Initial residual = 0.0113508, Final residual = 0.00033315, No Iterations 4
smoothSolver:  Solving for Uy, Initial residual = 0.00795264, Final residual = 0.000322021, No Iterations 4
GAMG:  Solving for p, Initial residual = 0.0342105, Final residual = 0.0030083, No Iterations 6
time step continuity errors : sum local = 1.55588e-05, global = 1.32046e-06, cumulative = 0.00025701
smoothSolver:  Solving for nuTilda, Initial residual = 0.0172082, Final residual = 0.0012532, No Iterations 2
ExecutionTime = 2.15783 s  ClockTime = 5 s

Time = 64s

smoothSolver:  Solving for Ux, Initial residual = 0.0109342, Final residual = 0.000323383, No Iterations 4
smoothSolver:  Solving for Uy, Initial residual = 0.00777839, Final residual = 0.000324967, No Iterations 4
GAMG:  Solving for p, Initial residual = 0.0329709, Final residual = 0.00314719, No Iterations 5
time step continuity errors : sum local = 1.64314e-05, global = -4.39056e-06, cumulative = 0.000252619
smoothSolver:  Solving for nuTilda, Initial residual = 0.0173683, Final residual = 0.00124435, No Iterations 2
ExecutionTime = 2.18659 s  ClockTime = 5 s

Time = 65s

smoothSolver:  Solving for Ux, Initial residual = 0.0104818, Final residual = 0.000313638, No Iterations 4
smoothSolver:  Solving for Uy, Initial residual = 0.00749196, Final residual = 0.000318734, No Iterations 4
GAMG:  Solving for p, Initial residual = 0.031693, Final residual = 0.0030115, No Iterations 5
time step continuity errors : sum local = 1.56608e-05, global = -3.87479e-06, cumulative = 0.000248745
smoothSolver:  Solving for nuTilda, Initial residual = 0.0175911, Final residual = 0.00124281, No Iterations 2
ExecutionTime = 2.21166 s  ClockTime = 5 s

Time = 66s

smoothSolver:  Solving for Ux, Initial residual = 0.0100236, Final residual = 0.000301902, No Iterations 4
smoothSolver:  Solving for Uy, Initial residual = 0.00716821, Final residual = 0.000305691, No Iterations 4
GAMG:  Solving for p, Initial residual = 0.0307057, Final residual = 0.00296633, No Iterations 5
time step continuity errors : sum local = 1.52633e-05, global = -1.37777e-06, cumulative = 0.000247367
smoothSolver:  Solving for nuTilda, Initial residual = 0.0179013, Final residual = 0.00123994, No Iterations 2
ExecutionTime = 2.2349 s  ClockTime = 5 s

Time = 67s

smoothSolver:  Solving for Ux, Initial residual = 0.00961135, Final residual = 0.000289156, No Iterations 4
smoothSolver:  Solving for Uy, Initial residual = 0.00688581, Final residual = 0.000291493, No Iterations 4
GAMG:  Solving for p, Initial residual = 0.0291316, Final residual = 0.00268459, No Iterations 4
time step continuity errors : sum local = 1.36828e-05, global = -1.87967e-06, cumulative = 0.000245487
smoothSolver:  Solving for nuTilda, Initial residual = 0.0182695, Final residual = 0.00124252, No Iterations 2
ExecutionTime = 2.25683 s  ClockTime = 5 s

Time = 68s

smoothSolver:  Solving for Ux, Initial residual = 0.00920451, Final residual = 0.00027442, No Iterations 4
smoothSolver:  Solving for Uy, Initial residual = 0.00657824, Final residual = 0.000272296, No Iterations 4
GAMG:  Solving for p, Initial residual = 0.0268166, Final residual = 0.00257542, No Iterations 5
time step continuity errors : sum local = 1.31352e-05, global = 3.18147e-06, cumulative = 0.000248669
smoothSolver:  Solving for nuTilda, Initial residual = 0.0187083, Final residual = 0.00124021, No Iterations 2
ExecutionTime = 2.27956 s  ClockTime = 5 s

Time = 69s

smoothSolver:  Solving for Ux, Initial residual = 0.00886659, Final residual = 0.000260845, No Iterations 4
smoothSolver:  Solving for Uy, Initial residual = 0.00625008, Final residual = 0.000256545, No Iterations 4
GAMG:  Solving for p, Initial residual = 0.0251539, Final residual = 0.00231973, No Iterations 5
time step continuity errors : sum local = 1.19316e-05, global = 3.2369e-06, cumulative = 0.000251905
smoothSolver:  Solving for nuTilda, Initial residual = 0.019101, Final residual = 0.00123585, No Iterations 2
ExecutionTime = 2.30282 s  ClockTime = 5 s

Time = 70s

smoothSolver:  Solving for Ux, Initial residual = 0.00853774, Final residual = 0.000247511, No Iterations 4
smoothSolver:  Solving for Uy, Initial residual = 0.00589049, Final residual = 0.000238961, No Iterations 4
GAMG:  Solving for p, Initial residual = 0.0239275, Final residual = 0.00183598, No Iterations 5
time step continuity errors : sum local = 9.58925e-06, global = 2.62423e-06, cumulative = 0.00025453
smoothSolver:  Solving for nuTilda, Initial residual = 0.0193994, Final residual = 0.00122362, No Iterations 2
ExecutionTime = 2.32572 s  ClockTime = 5 s

Time = 71s

smoothSolver:  Solving for Ux, Initial residual = 0.0082122, Final residual = 0.000235275, No Iterations 4
smoothSolver:  Solving for Uy, Initial residual = 0.00549888, Final residual = 0.000220915, No Iterations 4
GAMG:  Solving for p, Initial residual = 0.0225924, Final residual = 0.00203658, No Iterations 4
time step continuity errors : sum local = 1.08021e-05, global = -1.21729e-06, cumulative = 0.000253312
smoothSolver:  Solving for nuTilda, Initial residual = 0.0195955, Final residual = 0.00121025, No Iterations 2
ExecutionTime = 2.34805 s  ClockTime = 5 s

Time = 72s

smoothSolver:  Solving for Ux, Initial residual = 0.0078681, Final residual = 0.000222509, No Iterations 4
smoothSolver:  Solving for Uy, Initial residual = 0.00510396, Final residual = 0.000202586, No Iterations 4
GAMG:  Solving for p, Initial residual = 0.0213377, Final residual = 0.00178105, No Iterations 5
time step continuity errors : sum local = 9.54483e-06, global = 1.86701e-06, cumulative = 0.000255179
smoothSolver:  Solving for nuTilda, Initial residual = 0.0196364, Final residual = 0.00118901, No Iterations 2
ExecutionTime = 2.37141 s  ClockTime = 5 s

Time = 73s

smoothSolver:  Solving for Ux, Initial residual = 0.00752085, Final residual = 0.000210804, No Iterations 4
smoothSolver:  Solving for Uy, Initial residual = 0.00470134, Final residual = 0.00018718, No Iterations 4
GAMG:  Solving for p, Initial residual = 0.0198311, Final residual = 0.00158049, No Iterations 6
time step continuity errors : sum local = 8.50591e-06, global = -1.00326e-06, cumulative = 0.000254176
smoothSolver:  Solving for nuTilda, Initial residual = 0.0193924, Final residual = 0.00116481, No Iterations 2
ExecutionTime = 2.39865 s  ClockTime = 5 s

Time = 74s

smoothSolver:  Solving for Ux, Initial residual = 0.00717418, Final residual = 0.000198348, No Iterations 4
smoothSolver:  Solving for Uy, Initial residual = 0.00429043, Final residual = 0.000172382, No Iterations 4
GAMG:  Solving for p, Initial residual = 0.0186645, Final residual = 0.00158085, No Iterations 6
time step continuity errors : sum local = 8.51965e-06, global = -4.17077e-07, cumulative = 0.000253759
smoothSolver:  Solving for nuTilda, Initial residual = 0.018964, Final residual = 0.00114157, No Iterations 2
ExecutionTime = 2.42201 s  ClockTime = 5 s

Time = 75s

smoothSolver:  Solving for Ux, Initial residual = 0.0068292, Final residual = 0.000186397, No Iterations 4
smoothSolver:  Solving for Uy, Initial residual = 0.00389205, Final residual = 0.000157955, No Iterations 4
GAMG:  Solving for p, Initial residual = 0.0177334, Final residual = 0.00173999, No Iterations 5
time step continuity errors : sum local = 9.3768e-06, global = -8.64581e-07, cumulative = 0.000252895
smoothSolver:  Solving for nuTilda, Initial residual = 0.018355, Final residual = 0.00111839, No Iterations 2
ExecutionTime = 2.44522 s  ClockTime = 5 s

Time = 76s

smoothSolver:  Solving for Ux, Initial residual = 0.00648523, Final residual = 0.000175974, No Iterations 4
smoothSolver:  Solving for Uy, Initial residual = 0.00352065, Final residual = 0.000144616, No Iterations 4
GAMG:  Solving for p, Initial residual = 0.0169092, Final residual = 0.00164178, No Iterations 4
time step continuity errors : sum local = 8.86764e-06, global = 7.69641e-07, cumulative = 0.000253664
smoothSolver:  Solving for nuTilda, Initial residual = 0.0176463, Final residual = 0.00109518, No Iterations 2
ExecutionTime = 2.46706 s  ClockTime = 5 s

Time = 77s

smoothSolver:  Solving for Ux, Initial residual = 0.00614046, Final residual = 0.000164298, No Iterations 4
smoothSolver:  Solving for Uy, Initial residual = 0.00316638, Final residual = 0.000131604, No Iterations 4
GAMG:  Solving for p, Initial residual = 0.0158839, Final residual = 0.00148862, No Iterations 4
time step continuity errors : sum local = 8.07759e-06, global = 1.10794e-06, cumulative = 0.000254772
smoothSolver:  Solving for nuTilda, Initial residual = 0.0169256, Final residual = 0.00107603, No Iterations 2
ExecutionTime = 2.48924 s  ClockTime = 5 s

Time = 78s

smoothSolver:  Solving for Ux, Initial residual = 0.00578846, Final residual = 0.00015328, No Iterations 4
smoothSolver:  Solving for Uy, Initial residual = 0.00285533, Final residual = 0.000120686, No Iterations 4
GAMG:  Solving for p, Initial residual = 0.014585, Final residual = 0.0013093, No Iterations 4
time step continuity errors : sum local = 7.15591e-06, global = 9.16589e-07, cumulative = 0.000255689
smoothSolver:  Solving for nuTilda, Initial residual = 0.0161724, Final residual = 0.00106011, No Iterations 2
ExecutionTime = 2.51141 s  ClockTime = 5 s

Time = 79s

smoothSolver:  Solving for Ux, Initial residual = 0.0054541, Final residual = 0.000544649, No Iterations 2
smoothSolver:  Solving for Uy, Initial residual = 0.00260278, Final residual = 0.000112343, No Iterations 4
GAMG:  Solving for p, Initial residual = 0.0133464, Final residual = 0.00120302, No Iterations 4
time step continuity errors : sum local = 6.63196e-06, global = 7.44272e-07, cumulative = 0.000256433
smoothSolver:  Solving for nuTilda, Initial residual = 0.0155607, Final residual = 0.00104618, No Iterations 2
ExecutionTime = 2.53313 s  ClockTime = 5 s

Time = 80s

smoothSolver:  Solving for Ux, Initial residual = 0.00516192, Final residual = 0.000137513, No Iterations 4
smoothSolver:  Solving for Uy, Initial residual = 0.00238525, Final residual = 0.000104769, No Iterations 4
GAMG:  Solving for p, Initial residual = 0.0123377, Final residual = 0.00122907, No Iterations 4
time step continuity errors : sum local = 6.84456e-06, global = -5.53707e-07, cumulative = 0.000255879
smoothSolver:  Solving for nuTilda, Initial residual = 0.015, Final residual = 0.00103632, No Iterations 2
ExecutionTime = 2.55588 s  ClockTime = 5 s

Time = 81s

smoothSolver:  Solving for Ux, Initial residual = 0.00484804, Final residual = 0.00012794, No Iterations 4
smoothSolver:  Solving for Uy, Initial residual = 0.00221797, Final residual = 9.94799e-05, No Iterations 4
GAMG:  Solving for p, Initial residual = 0.0115502, Final residual = 0.000874347, No Iterations 6
time step continuity errors : sum local = 4.90188e-06, global = -8.56215e-07, cumulative = 0.000255023
smoothSolver:  Solving for nuTilda, Initial residual = 0.0145823, Final residual = 0.00103059, No Iterations 2
ExecutionTime = 2.58534 s  ClockTime = 5 s

Time = 82s

smoothSolver:  Solving for Ux, Initial residual = 0.0045511, Final residual = 0.000450641, No Iterations 2
smoothSolver:  Solving for Uy, Initial residual = 0.00207535, Final residual = 9.64201e-05, No Iterations 4
GAMG:  Solving for p, Initial residual = 0.0105417, Final residual = 0.000917357, No Iterations 6
time step continuity errors : sum local = 5.15812e-06, global = -5.72408e-07, cumulative = 0.000254451
smoothSolver:  Solving for nuTilda, Initial residual = 0.0143647, Final residual = 0.00102656, No Iterations 2
ExecutionTime = 2.60887 s  ClockTime = 5 s

Time = 83s

smoothSolver:  Solving for Ux, Initial residual = 0.00430868, Final residual = 0.000427618, No Iterations 2
smoothSolver:  Solving for Uy, Initial residual = 0.0019205, Final residual = 9.23715e-05, No Iterations 4
GAMG:  Solving for p, Initial residual = 0.00972586, Final residual = 0.000815689, No Iterations 6
time step continuity errors : sum local = 4.59799e-06, global = -1.32461e-07, cumulative = 0.000254318
smoothSolver:  Solving for nuTilda, Initial residual = 0.0142341, Final residual = 0.00102561, No Iterations 2
ExecutionTime = 2.63216 s  ClockTime = 5 s

Time = 84s

smoothSolver:  Solving for Ux, Initial residual = 0.00407946, Final residual = 0.000405408, No Iterations 2
smoothSolver:  Solving for Uy, Initial residual = 0.00177077, Final residual = 8.76483e-05, No Iterations 4
GAMG:  Solving for p, Initial residual = 0.00889973, Final residual = 0.000809653, No Iterations 5
time step continuity errors : sum local = 4.57622e-06, global = -6.45002e-07, cumulative = 0.000253673
smoothSolver:  Solving for nuTilda, Initial residual = 0.0141954, Final residual = 0.00102886, No Iterations 2
ExecutionTime = 2.65576 s  ClockTime = 5 s

Time = 85s

smoothSolver:  Solving for Ux, Initial residual = 0.00385459, Final residual = 0.000380914, No Iterations 2
smoothSolver:  Solving for Uy, Initial residual = 0.00166545, Final residual = 8.22233e-05, No Iterations 4
GAMG:  Solving for p, Initial residual = 0.00800279, Final residual = 0.000713385, No Iterations 4
time step continuity errors : sum local = 4.04723e-06, global = 7.47814e-07, cumulative = 0.000254421
smoothSolver:  Solving for nuTilda, Initial residual = 0.0143062, Final residual = 0.00103446, No Iterations 2
ExecutionTime = 2.67778 s  ClockTime = 5 s

Time = 86s

smoothSolver:  Solving for Ux, Initial residual = 0.00364272, Final residual = 0.000356586, No Iterations 2
smoothSolver:  Solving for Uy, Initial residual = 0.00155878, Final residual = 7.57127e-05, No Iterations 4
GAMG:  Solving for p, Initial residual = 0.00723655, Final residual = 0.00064841, No Iterations 4
time step continuity errors : sum local = 3.69185e-06, global = 8.02631e-07, cumulative = 0.000255224
smoothSolver:  Solving for nuTilda, Initial residual = 0.0145237, Final residual = 0.00104199, No Iterations 2
ExecutionTime = 2.69875 s  ClockTime = 5 s

Time = 87s

smoothSolver:  Solving for Ux, Initial residual = 0.00345334, Final residual = 0.000335304, No Iterations 2
smoothSolver:  Solving for Uy, Initial residual = 0.00147127, Final residual = 7.03462e-05, No Iterations 4
GAMG:  Solving for p, Initial residual = 0.00659376, Final residual = 0.00056716, No Iterations 5
time step continuity errors : sum local = 3.24262e-06, global = -7.04867e-07, cumulative = 0.000254519
smoothSolver:  Solving for nuTilda, Initial residual = 0.0148137, Final residual = 0.00105254, No Iterations 2
ExecutionTime = 2.72173 s  ClockTime = 5 s

Time = 88s

smoothSolver:  Solving for Ux, Initial residual = 0.0032862, Final residual = 0.000318315, No Iterations 2
smoothSolver:  Solving for Uy, Initial residual = 0.00139819, Final residual = 6.63164e-05, No Iterations 4
GAMG:  Solving for p, Initial residual = 0.00613401, Final residual = 0.000606793, No Iterations 5
time step continuity errors : sum local = 3.48599e-06, global = -7.59784e-07, cumulative = 0.000253759
smoothSolver:  Solving for nuTilda, Initial residual = 0.0151964, Final residual = 0.00106441, No Iterations 2
ExecutionTime = 2.75868 s  ClockTime = 5 s

Time = 89s

smoothSolver:  Solving for Ux, Initial residual = 0.00314774, Final residual = 0.000304541, No Iterations 2
smoothSolver:  Solving for Uy, Initial residual = 0.00132479, Final residual = 6.30895e-05, No Iterations 4
GAMG:  Solving for p, Initial residual = 0.00580091, Final residual = 0.000498215, No Iterations 6
time step continuity errors : sum local = 2.87317e-06, global = 2.10441e-07, cumulative = 0.000253969
smoothSolver:  Solving for nuTilda, Initial residual = 0.0155885, Final residual = 0.00107696, No Iterations 2
ExecutionTime = 2.78716 s  ClockTime = 5 s

Time = 90s

smoothSolver:  Solving for Ux, Initial residual = 0.00302562, Final residual = 0.000290937, No Iterations 2
smoothSolver:  Solving for Uy, Initial residual = 0.00124767, Final residual = 5.94976e-05, No Iterations 4
GAMG:  Solving for p, Initial residual = 0.00540258, Final residual = 0.00053646, No Iterations 5
time step continuity errors : sum local = 3.10057e-06, global = -8.19265e-07, cumulative = 0.00025315
smoothSolver:  Solving for nuTilda, Initial residual = 0.0160506, Final residual = 0.00109132, No Iterations 2
ExecutionTime = 2.81502 s  ClockTime = 5 s

Time = 91s

smoothSolver:  Solving for Ux, Initial residual = 0.00290771, Final residual = 0.000275976, No Iterations 2
smoothSolver:  Solving for Uy, Initial residual = 0.00117504, Final residual = 5.56829e-05, No Iterations 4
GAMG:  Solving for p, Initial residual = 0.0050125, Final residual = 0.000491826, No Iterations 5
time step continuity errors : sum local = 2.84758e-06, global = -6.2232e-07, cumulative = 0.000252528
smoothSolver:  Solving for nuTilda, Initial residual = 0.0165815, Final residual = 0.00110476, No Iterations 2
ExecutionTime = 2.83884 s  ClockTime = 5 s

Time = 92s

smoothSolver:  Solving for Ux, Initial residual = 0.0027846, Final residual = 0.000260825, No Iterations 2
smoothSolver:  Solving for Uy, Initial residual = 0.0011061, Final residual = 5.19036e-05, No Iterations 4
GAMG:  Solving for p, Initial residual = 0.00463715, Final residual = 0.00045875, No Iterations 5
time step continuity errors : sum local = 2.65961e-06, global = -5.96579e-07, cumulative = 0.000251931
smoothSolver:  Solving for nuTilda, Initial residual = 0.0171348, Final residual = 0.00111773, No Iterations 2
ExecutionTime = 2.86201 s  ClockTime = 5 s

Time = 93s

smoothSolver:  Solving for Ux, Initial residual = 0.00265889, Final residual = 0.000246125, No Iterations 2
smoothSolver:  Solving for Uy, Initial residual = 0.00103793, Final residual = 4.83093e-05, No Iterations 4
GAMG:  Solving for p, Initial residual = 0.00432418, Final residual = 0.000412498, No Iterations 5
time step continuity errors : sum local = 2.39483e-06, global = -5.09142e-07, cumulative = 0.000251422
smoothSolver:  Solving for nuTilda, Initial residual = 0.0177397, Final residual = 0.0011301, No Iterations 2
ExecutionTime = 2.88672 s  ClockTime = 6 s

Time = 94s

smoothSolver:  Solving for Ux, Initial residual = 0.00253953, Final residual = 0.000233229, No Iterations 2
smoothSolver:  Solving for Uy, Initial residual = 0.000972828, Final residual = 4.53259e-05, No Iterations 4
GAMG:  Solving for p, Initial residual = 0.00411893, Final residual = 0.000384636, No Iterations 6
time step continuity errors : sum local = 2.23663e-06, global = 5.00964e-07, cumulative = 0.000251923
smoothSolver:  Solving for nuTilda, Initial residual = 0.0183992, Final residual = 0.00113989, No Iterations 2
ExecutionTime = 2.91174 s  ClockTime = 6 s

Time = 95s

smoothSolver:  Solving for Ux, Initial residual = 0.00243579, Final residual = 0.000223094, No Iterations 2
smoothSolver:  Solving for Uy, Initial residual = 0.000916166, Final residual = 4.30715e-05, No Iterations 4
GAMG:  Solving for p, Initial residual = 0.00395682, Final residual = 0.000369584, No Iterations 6
time step continuity errors : sum local = 2.15239e-06, global = 5.0525e-07, cumulative = 0.000252428
smoothSolver:  Solving for nuTilda, Initial residual = 0.0191186, Final residual = 0.00114774, No Iterations 2
ExecutionTime = 2.93575 s  ClockTime = 6 s

Time = 96s

smoothSolver:  Solving for Ux, Initial residual = 0.0023384, Final residual = 0.000215183, No Iterations 2
smoothSolver:  Solving for Uy, Initial residual = 0.000870498, Final residual = 4.1503e-05, No Iterations 4
GAMG:  Solving for p, Initial residual = 0.00377271, Final residual = 0.000371646, No Iterations 6
time step continuity errors : sum local = 2.168e-06, global = 4.91674e-07, cumulative = 0.00025292
smoothSolver:  Solving for nuTilda, Initial residual = 0.0199108, Final residual = 0.00115371, No Iterations 2
ExecutionTime = 2.95926 s  ClockTime = 6 s

Time = 97s

smoothSolver:  Solving for Ux, Initial residual = 0.00224318, Final residual = 0.000208833, No Iterations 2
smoothSolver:  Solving for Uy, Initial residual = 0.000835125, Final residual = 4.01563e-05, No Iterations 4
GAMG:  Solving for p, Initial residual = 0.00353443, Final residual = 0.000346085, No Iterations 6
time step continuity errors : sum local = 2.0222e-06, global = 4.41766e-07, cumulative = 0.000253362
smoothSolver:  Solving for nuTilda, Initial residual = 0.0207706, Final residual = 0.00115703, No Iterations 2
ExecutionTime = 2.98342 s  ClockTime = 6 s

Time = 98s

smoothSolver:  Solving for Ux, Initial residual = 0.00214758, Final residual = 0.000202753, No Iterations 2
smoothSolver:  Solving for Uy, Initial residual = 0.000802795, Final residual = 3.87932e-05, No Iterations 4
GAMG:  Solving for p, Initial residual = 0.00327086, Final residual = 0.000308544, No Iterations 5
time step continuity errors : sum local = 1.80559e-06, global = -4.94536e-07, cumulative = 0.000252867
smoothSolver:  Solving for nuTilda, Initial residual = 0.0217432, Final residual = 0.00116002, No Iterations 2
ExecutionTime = 3.00563 s  ClockTime = 6 s

Time = 99s

smoothSolver:  Solving for Ux, Initial residual = 0.00205041, Final residual = 0.000196146, No Iterations 2
smoothSolver:  Solving for Uy, Initial residual = 0.000773797, Final residual = 3.74266e-05, No Iterations 4
GAMG:  Solving for p, Initial residual = 0.00304095, Final residual = 0.000231609, No Iterations 5
time step continuity errors : sum local = 1.35751e-06, global = -2.72291e-07, cumulative = 0.000252595
smoothSolver:  Solving for nuTilda, Initial residual = 0.0227942, Final residual = 0.0011607, No Iterations 2
ExecutionTime = 3.02764 s  ClockTime = 6 s

Time = 100s

smoothSolver:  Solving for Ux, Initial residual = 0.00196032, Final residual = 0.000189948, No Iterations 2
smoothSolver:  Solving for Uy, Initial residual = 0.000749024, Final residual = 3.61019e-05, No Iterations 4
GAMG:  Solving for p, Initial residual = 0.00287829, Final residual = 0.000218543, No Iterations 5
time step continuity errors : sum local = 1.28255e-06, global = 9.4463e-08, cumulative = 0.000252689
smoothSolver:  Solving for nuTilda, Initial residual = 0.0239771, Final residual = 0.00115991, No Iterations 2
ExecutionTime = 3.08229 s  ClockTime = 6 s

Time = 101s

smoothSolver:  Solving for Ux, Initial residual = 0.00187546, Final residual = 0.000183633, No Iterations 2
smoothSolver:  Solving for Uy, Initial residual = 0.000724603, Final residual = 3.45264e-05, No Iterations 4
GAMG:  Solving for p, Initial residual = 0.0027645, Final residual = 0.000213846, No Iterations 5
time step continuity errors : sum local = 1.25622e-06, global = -3.52265e-08, cumulative = 0.000252654
smoothSolver:  Solving for nuTilda, Initial residual = 0.0252493, Final residual = 0.00115807, No Iterations 2
ExecutionTime = 3.10656 s  ClockTime = 6 s

Time = 102s

smoothSolver:  Solving for Ux, Initial residual = 0.00179245, Final residual = 0.000177435, No Iterations 2
smoothSolver:  Solving for Uy, Initial residual = 0.000697171, Final residual = 3.29588e-05, No Iterations 4
GAMG:  Solving for p, Initial residual = 0.0026376, Final residual = 0.00023782, No Iterations 5
time step continuity errors : sum local = 1.39854e-06, global = -5.59658e-09, cumulative = 0.000252649
smoothSolver:  Solving for nuTilda, Initial residual = 0.0265618, Final residual = 0.00115241, No Iterations 2
ExecutionTime = 3.13039 s  ClockTime = 6 s

Time = 103s

smoothSolver:  Solving for Ux, Initial residual = 0.00171494, Final residual = 4.62938e-05, No Iterations 4
smoothSolver:  Solving for Uy, Initial residual = 0.000671224, Final residual = 3.13882e-05, No Iterations 4
GAMG:  Solving for p, Initial residual = 0.00254761, Final residual = 0.000242111, No Iterations 5
time step continuity errors : sum local = 1.42541e-06, global = 2.31916e-08, cumulative = 0.000252672
smoothSolver:  Solving for nuTilda, Initial residual = 0.0277299, Final residual = 0.00113739, No Iterations 2
ExecutionTime = 3.15669 s  ClockTime = 6 s

Time = 104s

smoothSolver:  Solving for Ux, Initial residual = 0.00163829, Final residual = 4.43006e-05, No Iterations 4
smoothSolver:  Solving for Uy, Initial residual = 0.000646523, Final residual = 2.99731e-05, No Iterations 4
GAMG:  Solving for p, Initial residual = 0.00241622, Final residual = 0.000239989, No Iterations 5
time step continuity errors : sum local = 1.41382e-06, global = 1.78129e-08, cumulative = 0.00025269
smoothSolver:  Solving for nuTilda, Initial residual = 0.0280126, Final residual = 0.00108402, No Iterations 2
ExecutionTime = 3.18193 s  ClockTime = 6 s

Time = 105s

smoothSolver:  Solving for Ux, Initial residual = 0.00156796, Final residual = 4.2553e-05, No Iterations 4
smoothSolver:  Solving for Uy, Initial residual = 0.000622629, Final residual = 2.89414e-05, No Iterations 4
GAMG:  Solving for p, Initial residual = 0.00226909, Final residual = 0.000218267, No Iterations 6
time step continuity errors : sum local = 1.28687e-06, global = -8.62948e-08, cumulative = 0.000252603
smoothSolver:  Solving for nuTilda, Initial residual = 0.026835, Final residual = 0.000978491, No Iterations 2
ExecutionTime = 3.20643 s  ClockTime = 6 s

Time = 106s

smoothSolver:  Solving for Ux, Initial residual = 0.00150569, Final residual = 4.08021e-05, No Iterations 4
smoothSolver:  Solving for Uy, Initial residual = 0.000601977, Final residual = 2.77627e-05, No Iterations 4
GAMG:  Solving for p, Initial residual = 0.00216206, Final residual = 0.000208489, No Iterations 5
time step continuity errors : sum local = 1.2309e-06, global = 1.08735e-07, cumulative = 0.000252712
smoothSolver:  Solving for nuTilda, Initial residual = 0.0250865, Final residual = 0.000864086, No Iterations 2
ExecutionTime = 3.22991 s  ClockTime = 6 s

Time = 107s

smoothSolver:  Solving for Ux, Initial residual = 0.00145112, Final residual = 3.91514e-05, No Iterations 4
smoothSolver:  Solving for Uy, Initial residual = 0.000584503, Final residual = 2.66784e-05, No Iterations 4
GAMG:  Solving for p, Initial residual = 0.00208298, Final residual = 0.000177874, No Iterations 5
time step continuity errors : sum local = 1.052e-06, global = 9.19184e-08, cumulative = 0.000252804
smoothSolver:  Solving for nuTilda, Initial residual = 0.0231935, Final residual = 0.000756922, No Iterations 2
ExecutionTime = 3.25316 s  ClockTime = 6 s

Time = 108s

smoothSolver:  Solving for Ux, Initial residual = 0.0014016, Final residual = 3.75886e-05, No Iterations 4
smoothSolver:  Solving for Uy, Initial residual = 0.000569783, Final residual = 2.55725e-05, No Iterations 4
GAMG:  Solving for p, Initial residual = 0.00201809, Final residual = 0.000170231, No Iterations 5
time step continuity errors : sum local = 1.00867e-06, global = 9.91606e-08, cumulative = 0.000252903
smoothSolver:  Solving for nuTilda, Initial residual = 0.0211844, Final residual = 0.000658859, No Iterations 2
ExecutionTime = 3.27621 s  ClockTime = 6 s

Time = 109s

smoothSolver:  Solving for Ux, Initial residual = 0.00135313, Final residual = 0.00013509, No Iterations 2
smoothSolver:  Solving for Uy, Initial residual = 0.000557019, Final residual = 2.4674e-05, No Iterations 4
GAMG:  Solving for p, Initial residual = 0.00193621, Final residual = 0.00017659, No Iterations 5
time step continuity errors : sum local = 1.04803e-06, global = 3.16802e-08, cumulative = 0.000252935
smoothSolver:  Solving for nuTilda, Initial residual = 0.0190939, Final residual = 0.000570281, No Iterations 2
ExecutionTime = 3.29987 s  ClockTime = 6 s

Time = 110s

smoothSolver:  Solving for Ux, Initial residual = 0.00131086, Final residual = 3.49687e-05, No Iterations 4
smoothSolver:  Solving for Uy, Initial residual = 0.000545917, Final residual = 2.39692e-05, No Iterations 4
GAMG:  Solving for p, Initial residual = 0.00188127, Final residual = 0.00016304, No Iterations 6
time step continuity errors : sum local = 9.69387e-07, global = -2.23645e-07, cumulative = 0.000252711
smoothSolver:  Solving for nuTilda, Initial residual = 0.0169771, Final residual = 0.000494065, No Iterations 2
ExecutionTime = 3.32504 s  ClockTime = 6 s

Time = 111s

smoothSolver:  Solving for Ux, Initial residual = 0.00126654, Final residual = 0.000125351, No Iterations 2
smoothSolver:  Solving for Uy, Initial residual = 0.000538514, Final residual = 2.34409e-05, No Iterations 4
GAMG:  Solving for p, Initial residual = 0.00175649, Final residual = 0.00015714, No Iterations 6
time step continuity errors : sum local = 9.35299e-07, global = -2.00085e-07, cumulative = 0.000252511
smoothSolver:  Solving for nuTilda, Initial residual = 0.014884, Final residual = 0.000428507, No Iterations 2
ExecutionTime = 3.34888 s  ClockTime = 6 s

Time = 112s

smoothSolver:  Solving for Ux, Initial residual = 0.00122615, Final residual = 0.000120986, No Iterations 2
smoothSolver:  Solving for Uy, Initial residual = 0.000531377, Final residual = 2.28897e-05, No Iterations 4
GAMG:  Solving for p, Initial residual = 0.00164357, Final residual = 0.000159726, No Iterations 5
time step continuity errors : sum local = 9.51769e-07, global = 1.53051e-07, cumulative = 0.000252664
smoothSolver:  Solving for nuTilda, Initial residual = 0.0128239, Final residual = 0.000374545, No Iterations 2
ExecutionTime = 3.37143 s  ClockTime = 6 s

Time = 113s

smoothSolver:  Solving for Ux, Initial residual = 0.00118799, Final residual = 0.000117127, No Iterations 2
smoothSolver:  Solving for Uy, Initial residual = 0.000524505, Final residual = 2.244e-05, No Iterations 4
GAMG:  Solving for p, Initial residual = 0.00154629, Final residual = 0.000129022, No Iterations 5
time step continuity errors : sum local = 7.69711e-07, global = 6.61929e-08, cumulative = 0.00025273
smoothSolver:  Solving for nuTilda, Initial residual = 0.0109316, Final residual = 0.000331204, No Iterations 2
ExecutionTime = 3.39379 s  ClockTime = 6 s

Time = 114s

smoothSolver:  Solving for Ux, Initial residual = 0.00115373, Final residual = 0.000113363, No Iterations 2
smoothSolver:  Solving for Uy, Initial residual = 0.000517058, Final residual = 2.19721e-05, No Iterations 4
GAMG:  Solving for p, Initial residual = 0.00148748, Final residual = 0.000144044, No Iterations 4
time step continuity errors : sum local = 8.60428e-07, global = -5.0262e-08, cumulative = 0.00025268
smoothSolver:  Solving for nuTilda, Initial residual = 0.00918328, Final residual = 0.00029735, No Iterations 2
ExecutionTime = 3.42012 s  ClockTime = 6 s

Time = 115s

smoothSolver:  Solving for Ux, Initial residual = 0.00112343, Final residual = 0.000109369, No Iterations 2
smoothSolver:  Solving for Uy, Initial residual = 0.000508426, Final residual = 2.13658e-05, No Iterations 4
GAMG:  Solving for p, Initial residual = 0.00143012, Final residual = 0.000116509, No Iterations 5
time step continuity errors : sum local = 6.96802e-07, global = 2.12046e-08, cumulative = 0.000252701
smoothSolver:  Solving for nuTilda, Initial residual = 0.00763845, Final residual = 0.000271522, No Iterations 2
ExecutionTime = 3.44644 s  ClockTime = 6 s

Time = 116s

smoothSolver:  Solving for Ux, Initial residual = 0.00109299, Final residual = 0.000106007, No Iterations 2
smoothSolver:  Solving for Uy, Initial residual = 0.000505194, Final residual = 2.12165e-05, No Iterations 4
GAMG:  Solving for p, Initial residual = 0.00138055, Final residual = 0.000121541, No Iterations 5
time step continuity errors : sum local = 7.27707e-07, global = -4.27501e-08, cumulative = 0.000252658
smoothSolver:  Solving for nuTilda, Initial residual = 0.0063375, Final residual = 0.000251825, No Iterations 2
ExecutionTime = 3.47134 s  ClockTime = 6 s

Time = 117s

smoothSolver:  Solving for Ux, Initial residual = 0.00106399, Final residual = 0.000102641, No Iterations 2
smoothSolver:  Solving for Uy, Initial residual = 0.000502255, Final residual = 2.10493e-05, No Iterations 4
GAMG:  Solving for p, Initial residual = 0.00134119, Final residual = 0.000121197, No Iterations 5
time step continuity errors : sum local = 7.26379e-07, global = -5.02326e-08, cumulative = 0.000252608
smoothSolver:  Solving for nuTilda, Initial residual = 0.00522531, Final residual = 0.000236768, No Iterations 2
ExecutionTime = 3.49647 s  ClockTime = 6 s

Time = 118s

smoothSolver:  Solving for Ux, Initial residual = 0.00103681, Final residual = 9.91727e-05, No Iterations 2
smoothSolver:  Solving for Uy, Initial residual = 0.000498122, Final residual = 2.08007e-05, No Iterations 4
GAMG:  Solving for p, Initial residual = 0.00130624, Final residual = 0.000114981, No Iterations 5
time step continuity errors : sum local = 6.89762e-07, global = -3.73755e-08, cumulative = 0.000252571
smoothSolver:  Solving for nuTilda, Initial residual = 0.00436409, Final residual = 0.000225132, No Iterations 2
ExecutionTime = 3.52345 s  ClockTime = 6 s

Time = 119s

smoothSolver:  Solving for Ux, Initial residual = 0.00101183, Final residual = 9.57808e-05, No Iterations 2
smoothSolver:  Solving for Uy, Initial residual = 0.000493144, Final residual = 2.04955e-05, No Iterations 4
GAMG:  Solving for p, Initial residual = 0.0012669, Final residual = 0.00010709, No Iterations 5
time step continuity errors : sum local = 6.42986e-07, global = 3.36283e-09, cumulative = 0.000252574
smoothSolver:  Solving for nuTilda, Initial residual = 0.0036602, Final residual = 0.000216467, No Iterations 2
ExecutionTime = 3.54876 s  ClockTime = 6 s

Time = 120s

smoothSolver:  Solving for Ux, Initial residual = 0.000987603, Final residual = 9.2673e-05, No Iterations 2
smoothSolver:  Solving for Uy, Initial residual = 0.00048797, Final residual = 2.01682e-05, No Iterations 4
GAMG:  Solving for p, Initial residual = 0.00122386, Final residual = 0.000100486, No Iterations 5
time step continuity errors : sum local = 6.03853e-07, global = 1.78162e-08, cumulative = 0.000252592
smoothSolver:  Solving for nuTilda, Initial residual = 0.00311876, Final residual = 0.000209129, No Iterations 2
ExecutionTime = 3.57257 s  ClockTime = 6 s

Time = 121s

smoothSolver:  Solving for Ux, Initial residual = 0.00096436, Final residual = 8.98809e-05, No Iterations 2
smoothSolver:  Solving for Uy, Initial residual = 0.000482411, Final residual = 1.98558e-05, No Iterations 4
GAMG:  Solving for p, Initial residual = 0.00118393, Final residual = 9.40141e-05, No Iterations 5
time step continuity errors : sum local = 5.65445e-07, global = 2.54136e-08, cumulative = 0.000252617
smoothSolver:  Solving for nuTilda, Initial residual = 0.00270992, Final residual = 0.000202907, No Iterations 2
ExecutionTime = 3.59679 s  ClockTime = 6 s

Time = 122s

smoothSolver:  Solving for Ux, Initial residual = 0.000941872, Final residual = 8.73098e-05, No Iterations 2
smoothSolver:  Solving for Uy, Initial residual = 0.000476228, Final residual = 1.96139e-05, No Iterations 4
GAMG:  Solving for p, Initial residual = 0.00114633, Final residual = 8.73199e-05, No Iterations 5
time step continuity errors : sum local = 5.25626e-07, global = 2.83197e-08, cumulative = 0.000252646
smoothSolver:  Solving for nuTilda, Initial residual = 0.00240572, Final residual = 0.00019714, No Iterations 2
ExecutionTime = 3.61914 s  ClockTime = 6 s

Time = 123s

smoothSolver:  Solving for Ux, Initial residual = 0.000919888, Final residual = 8.48615e-05, No Iterations 2
smoothSolver:  Solving for Uy, Initial residual = 0.000470602, Final residual = 1.93887e-05, No Iterations 4
GAMG:  Solving for p, Initial residual = 0.00111407, Final residual = 0.000109257, No Iterations 4
time step continuity errors : sum local = 6.58217e-07, global = -6.60087e-08, cumulative = 0.00025258
smoothSolver:  Solving for nuTilda, Initial residual = 0.00217694, Final residual = 0.000192012, No Iterations 2
ExecutionTime = 3.6418 s  ClockTime = 6 s

Time = 124s

smoothSolver:  Solving for Ux, Initial residual = 0.000898352, Final residual = 8.23231e-05, No Iterations 2
smoothSolver:  Solving for Uy, Initial residual = 0.000463423, Final residual = 1.89933e-05, No Iterations 4
GAMG:  Solving for p, Initial residual = 0.00107871, Final residual = 8.79724e-05, No Iterations 5
time step continuity errors : sum local = 5.30424e-07, global = 4.71376e-08, cumulative = 0.000252627
smoothSolver:  Solving for nuTilda, Initial residual = 0.0020092, Final residual = 0.000186883, No Iterations 2
ExecutionTime = 3.66739 s  ClockTime = 6 s

Time = 125s

smoothSolver:  Solving for Ux, Initial residual = 0.000877511, Final residual = 8.02912e-05, No Iterations 2
smoothSolver:  Solving for Uy, Initial residual = 0.000458847, Final residual = 1.88677e-05, No Iterations 4
GAMG:  Solving for p, Initial residual = 0.00105579, Final residual = 8.77008e-05, No Iterations 5
time step continuity errors : sum local = 5.29204e-07, global = 4.58609e-08, cumulative = 0.000252673
smoothSolver:  Solving for nuTilda, Initial residual = 0.00188541, Final residual = 0.000181654, No Iterations 2
ExecutionTime = 3.69736 s  ClockTime = 6 s

Time = 126s

smoothSolver:  Solving for Ux, Initial residual = 0.000857559, Final residual = 7.82861e-05, No Iterations 2
smoothSolver:  Solving for Uy, Initial residual = 0.000453395, Final residual = 1.86632e-05, No Iterations 4
GAMG:  Solving for p, Initial residual = 0.00104125, Final residual = 8.6106e-05, No Iterations 5
time step continuity errors : sum local = 5.19989e-07, global = 5.72596e-08, cumulative = 0.00025273
smoothSolver:  Solving for nuTilda, Initial residual = 0.00179895, Final residual = 0.000176297, No Iterations 2
ExecutionTime = 3.71922 s  ClockTime = 6 s

Time = 127s

smoothSolver:  Solving for Ux, Initial residual = 0.000838184, Final residual = 7.62257e-05, No Iterations 2
smoothSolver:  Solving for Uy, Initial residual = 0.00044626, Final residual = 1.83461e-05, No Iterations 4
GAMG:  Solving for p, Initial residual = 0.00102483, Final residual = 8.42495e-05, No Iterations 5
time step continuity errors : sum local = 5.09167e-07, global = 6.31856e-08, cumulative = 0.000252793
smoothSolver:  Solving for nuTilda, Initial residual = 0.00172927, Final residual = 0.00017091, No Iterations 2
ExecutionTime = 3.75283 s  ClockTime = 6 s

Time = 128s

smoothSolver:  Solving for Ux, Initial residual = 0.000819246, Final residual = 7.4196e-05, No Iterations 2
smoothSolver:  Solving for Uy, Initial residual = 0.000437957, Final residual = 1.79725e-05, No Iterations 4
GAMG:  Solving for p, Initial residual = 0.00100152, Final residual = 8.2068e-05, No Iterations 5
time step continuity errors : sum local = 4.96353e-07, global = 6.36517e-08, cumulative = 0.000252857
smoothSolver:  Solving for nuTilda, Initial residual = 0.00167227, Final residual = 0.000165348, No Iterations 2
ExecutionTime = 3.78175 s  ClockTime = 6 s

Time = 129s

smoothSolver:  Solving for Ux, Initial residual = 0.000800885, Final residual = 7.22842e-05, No Iterations 2
smoothSolver:  Solving for Uy, Initial residual = 0.00042933, Final residual = 1.75996e-05, No Iterations 4
GAMG:  Solving for p, Initial residual = 0.000975097, Final residual = 7.95916e-05, No Iterations 5
time step continuity errors : sum local = 4.81732e-07, global = 6.12921e-08, cumulative = 0.000252918
smoothSolver:  Solving for nuTilda, Initial residual = 0.00162193, Final residual = 0.00015967, No Iterations 2
ExecutionTime = 3.8105 s  ClockTime = 6 s

Time = 130s

smoothSolver:  Solving for Ux, Initial residual = 0.00078318, Final residual = 7.05035e-05, No Iterations 2
smoothSolver:  Solving for Uy, Initial residual = 0.000420835, Final residual = 1.72489e-05, No Iterations 4
GAMG:  Solving for p, Initial residual = 0.000950628, Final residual = 7.68305e-05, No Iterations 5
time step continuity errors : sum local = 4.65366e-07, global = 5.829e-08, cumulative = 0.000252976
smoothSolver:  Solving for nuTilda, Initial residual = 0.00157366, Final residual = 0.000153993, No Iterations 2
ExecutionTime = 3.83455 s  ClockTime = 6 s

Time = 131s

smoothSolver:  Solving for Ux, Initial residual = 0.000766037, Final residual = 6.88097e-05, No Iterations 2
smoothSolver:  Solving for Uy, Initial residual = 0.000412411, Final residual = 1.6911e-05, No Iterations 4
GAMG:  Solving for p, Initial residual = 0.000928404, Final residual = 7.39469e-05, No Iterations 5
time step continuity errors : sum local = 4.4823e-07, global = 5.63284e-08, cumulative = 0.000253033
smoothSolver:  Solving for nuTilda, Initial residual = 0.00152501, Final residual = 0.000148289, No Iterations 2
ExecutionTime = 3.8577 s  ClockTime = 6 s

Time = 132s

smoothSolver:  Solving for Ux, Initial residual = 0.000749381, Final residual = 6.71625e-05, No Iterations 2
smoothSolver:  Solving for Uy, Initial residual = 0.000403834, Final residual = 1.65712e-05, No Iterations 4
GAMG:  Solving for p, Initial residual = 0.000908702, Final residual = 8.96403e-05, No Iterations 4
time step continuity errors : sum local = 5.43749e-07, global = -7.95384e-08, cumulative = 0.000252953
smoothSolver:  Solving for nuTilda, Initial residual = 0.00147726, Final residual = 0.000142601, No Iterations 2
ExecutionTime = 3.87921 s  ClockTime = 7 s

Time = 133s

smoothSolver:  Solving for Ux, Initial residual = 0.000733188, Final residual = 6.54122e-05, No Iterations 2
smoothSolver:  Solving for Uy, Initial residual = 0.000393825, Final residual = 1.61042e-05, No Iterations 4
GAMG:  Solving for p, Initial residual = 0.0008854, Final residual = 7.49719e-05, No Iterations 5
time step continuity errors : sum local = 4.55104e-07, global = 7.23151e-08, cumulative = 0.000253026
smoothSolver:  Solving for nuTilda, Initial residual = 0.00143086, Final residual = 0.000136969, No Iterations 2
ExecutionTime = 3.90322 s  ClockTime = 7 s

Time = 134s

smoothSolver:  Solving for Ux, Initial residual = 0.000717402, Final residual = 6.40098e-05, No Iterations 2
smoothSolver:  Solving for Uy, Initial residual = 0.000385706, Final residual = 1.58553e-05, No Iterations 4
GAMG:  Solving for p, Initial residual = 0.000865695, Final residual = 7.03258e-05, No Iterations 5
time step continuity errors : sum local = 4.27187e-07, global = 5.83542e-08, cumulative = 0.000253084
smoothSolver:  Solving for nuTilda, Initial residual = 0.00138616, Final residual = 0.000131362, No Iterations 2
ExecutionTime = 3.92739 s  ClockTime = 7 s

Time = 135s

smoothSolver:  Solving for Ux, Initial residual = 0.00070196, Final residual = 6.25836e-05, No Iterations 2
smoothSolver:  Solving for Uy, Initial residual = 0.000377152, Final residual = 1.55569e-05, No Iterations 4
GAMG:  Solving for p, Initial residual = 0.000848907, Final residual = 8.15688e-05, No Iterations 4
[...]
GAMG:  Solving for p, Initial residual = 1.71053e-05, Final residual = 1.67153e-06, No Iterations 4
time step continuity errors : sum local = 1.04274e-08, global = -1.74648e-09, cumulative = 0.000251806
smoothSolver:  Solving for nuTilda, Initial residual = 2.34004e-05, Final residual = 2.32486e-06, No Iterations 2
ExecutionTime = 7.39349 s  ClockTime = 10 s

Time = 281s

smoothSolver:  Solving for Ux, Initial residual = 1.56233e-05, Final residual = 1.48383e-06, No Iterations 2
smoothSolver:  Solving for Uy, Initial residual = 7.07598e-06, Final residual = 3.04855e-07, No Iterations 4
GAMG:  Solving for p, Initial residual = 1.65945e-05, Final residual = 1.35294e-06, No Iterations 5
time step continuity errors : sum local = 8.44004e-09, global = 1.64376e-09, cumulative = 0.000251808
smoothSolver:  Solving for nuTilda, Initial residual = 2.28111e-05, Final residual = 2.27236e-06, No Iterations 2
ExecutionTime = 7.41706 s  ClockTime = 10 s

Time = 282s

smoothSolver:  Solving for Ux, Initial residual = 1.52119e-05, Final residual = 1.44701e-06, No Iterations 2
smoothSolver:  Solving for Uy, Initial residual = 6.90616e-06, Final residual = 2.98422e-07, No Iterations 4
GAMG:  Solving for p, Initial residual = 1.61566e-05, Final residual = 1.26695e-06, No Iterations 5
time step continuity errors : sum local = 7.90372e-09, global = 1.26866e-09, cumulative = 0.000251809
smoothSolver:  Solving for nuTilda, Initial residual = 2.22338e-05, Final residual = 2.22117e-06, No Iterations 2
ExecutionTime = 7.44248 s  ClockTime = 10 s

Time = 283s

smoothSolver:  Solving for Ux, Initial residual = 1.48167e-05, Final residual = 1.41074e-06, No Iterations 2
smoothSolver:  Solving for Uy, Initial residual = 6.73885e-06, Final residual = 2.91642e-07, No Iterations 4
GAMG:  Solving for p, Initial residual = 1.58171e-05, Final residual = 1.53985e-06, No Iterations 4
time step continuity errors : sum local = 9.60631e-09, global = -1.61402e-09, cumulative = 0.000251808
smoothSolver:  Solving for nuTilda, Initial residual = 2.16749e-05, Final residual = 6.0088e-07, No Iterations 4
ExecutionTime = 7.467 s  ClockTime = 10 s

Time = 284s

smoothSolver:  Solving for Ux, Initial residual = 1.44413e-05, Final residual = 1.37131e-06, No Iterations 2
smoothSolver:  Solving for Uy, Initial residual = 6.54557e-06, Final residual = 2.81951e-07, No Iterations 4
GAMG:  Solving for p, Initial residual = 1.5347e-05, Final residual = 1.24962e-06, No Iterations 5
time step continuity errors : sum local = 7.79586e-09, global = 1.51905e-09, cumulative = 0.000251809
smoothSolver:  Solving for nuTilda, Initial residual = 2.10763e-05, Final residual = 2.09723e-06, No Iterations 2
ExecutionTime = 7.48992 s  ClockTime = 10 s

Time = 285s

smoothSolver:  Solving for Ux, Initial residual = 1.40614e-05, Final residual = 1.33731e-06, No Iterations 2
smoothSolver:  Solving for Uy, Initial residual = 6.38818e-06, Final residual = 2.76018e-07, No Iterations 4
GAMG:  Solving for p, Initial residual = 1.49428e-05, Final residual = 1.17218e-06, No Iterations 5
time step continuity errors : sum local = 7.31281e-09, global = 1.17147e-09, cumulative = 0.00025181
smoothSolver:  Solving for nuTilda, Initial residual = 2.05478e-05, Final residual = 2.05009e-06, No Iterations 2
ExecutionTime = 7.5129 s  ClockTime = 10 s

Time = 286s

smoothSolver:  Solving for Ux, Initial residual = 1.36963e-05, Final residual = 1.30375e-06, No Iterations 2
smoothSolver:  Solving for Uy, Initial residual = 6.23316e-06, Final residual = 2.69742e-07, No Iterations 4
GAMG:  Solving for p, Initial residual = 1.46258e-05, Final residual = 1.42631e-06, No Iterations 4
time step continuity errors : sum local = 8.89837e-09, global = -1.49745e-09, cumulative = 0.000251809
smoothSolver:  Solving for nuTilda, Initial residual = 2.00294e-05, Final residual = 5.54199e-07, No Iterations 4
ExecutionTime = 7.53449 s  ClockTime = 10 s

Time = 287s

smoothSolver:  Solving for Ux, Initial residual = 1.33495e-05, Final residual = 1.26729e-06, No Iterations 2
smoothSolver:  Solving for Uy, Initial residual = 6.05423e-06, Final residual = 2.6076e-07, No Iterations 4
GAMG:  Solving for p, Initial residual = 1.41908e-05, Final residual = 1.15849e-06, No Iterations 5
time step continuity errors : sum local = 7.22758e-09, global = 1.40807e-09, cumulative = 0.00025181
smoothSolver:  Solving for nuTilda, Initial residual = 1.94707e-05, Final residual = 1.93555e-06, No Iterations 2
ExecutionTime = 7.55774 s  ClockTime = 10 s

Time = 288s

smoothSolver:  Solving for Ux, Initial residual = 1.29985e-05, Final residual = 1.23587e-06, No Iterations 2
smoothSolver:  Solving for Uy, Initial residual = 5.90863e-06, Final residual = 2.55259e-07, No Iterations 4
GAMG:  Solving for p, Initial residual = 1.38162e-05, Final residual = 1.0859e-06, No Iterations 5
time step continuity errors : sum local = 6.77482e-09, global = 1.08663e-09, cumulative = 0.000251811
smoothSolver:  Solving for nuTilda, Initial residual = 1.89769e-05, Final residual = 1.89186e-06, No Iterations 2
ExecutionTime = 7.58189 s  ClockTime = 10 s

Time = 289s

smoothSolver:  Solving for Ux, Initial residual = 1.26611e-05, Final residual = 1.2049e-06, No Iterations 2
smoothSolver:  Solving for Uy, Initial residual = 5.76525e-06, Final residual = 2.4945e-07, No Iterations 4
GAMG:  Solving for p, Initial residual = 1.35257e-05, Final residual = 1.31884e-06, No Iterations 4
time step continuity errors : sum local = 8.2282e-09, global = -1.38441e-09, cumulative = 0.00025181
smoothSolver:  Solving for nuTilda, Initial residual = 1.84997e-05, Final residual = 1.84927e-06, No Iterations 2
ExecutionTime = 7.60705 s  ClockTime = 10 s

Time = 290s

smoothSolver:  Solving for Ux, Initial residual = 1.23406e-05, Final residual = 1.17125e-06, No Iterations 2
smoothSolver:  Solving for Uy, Initial residual = 5.59967e-06, Final residual = 2.41144e-07, No Iterations 4
GAMG:  Solving for p, Initial residual = 1.31207e-05, Final residual = 1.06903e-06, No Iterations 5
time step continuity errors : sum local = 6.66973e-09, global = 1.30095e-09, cumulative = 0.000251811
smoothSolver:  Solving for nuTilda, Initial residual = 1.80348e-05, Final residual = 5.0009e-07, No Iterations 4
ExecutionTime = 7.62998 s  ClockTime = 10 s

Time = 291s

smoothSolver:  Solving for Ux, Initial residual = 1.20163e-05, Final residual = 1.14226e-06, No Iterations 2
smoothSolver:  Solving for Uy, Initial residual = 5.46472e-06, Final residual = 2.36053e-07, No Iterations 4
GAMG:  Solving for p, Initial residual = 1.27772e-05, Final residual = 1.00255e-06, No Iterations 5
time step continuity errors : sum local = 6.25505e-09, global = 1.00508e-09, cumulative = 0.000251812
smoothSolver:  Solving for nuTilda, Initial residual = 1.75366e-05, Final residual = 1.7457e-06, No Iterations 2
ExecutionTime = 7.65327 s  ClockTime = 10 s

Time = 292s

smoothSolver:  Solving for Ux, Initial residual = 1.17046e-05, Final residual = 1.11367e-06, No Iterations 2
smoothSolver:  Solving for Uy, Initial residual = 5.3318e-06, Final residual = 2.30671e-07, No Iterations 4
GAMG:  Solving for p, Initial residual = 1.2504e-05, Final residual = 1.21791e-06, No Iterations 4
time step continuity errors : sum local = 7.59873e-09, global = -1.27895e-09, cumulative = 0.000251811
smoothSolver:  Solving for nuTilda, Initial residual = 1.70984e-05, Final residual = 1.70624e-06, No Iterations 2
ExecutionTime = 7.67582 s  ClockTime = 10 s

Time = 293s

smoothSolver:  Solving for Ux, Initial residual = 1.14085e-05, Final residual = 1.08259e-06, No Iterations 2
smoothSolver:  Solving for Uy, Initial residual = 5.17842e-06, Final residual = 2.2298e-07, No Iterations 4
GAMG:  Solving for p, Initial residual = 1.21339e-05, Final residual = 9.87614e-07, No Iterations 5
time step continuity errors : sum local = 6.16197e-09, global = 1.20374e-09, cumulative = 0.000251812
smoothSolver:  Solving for nuTilda, Initial residual = 1.66681e-05, Final residual = 4.61048e-07, No Iterations 4
ExecutionTime = 7.70069 s  ClockTime = 10 s

Time = 294s

smoothSolver:  Solving for Ux, Initial residual = 1.11087e-05, Final residual = 1.05583e-06, No Iterations 2
smoothSolver:  Solving for Uy, Initial residual = 5.05343e-06, Final residual = 2.18265e-07, No Iterations 4
GAMG:  Solving for p, Initial residual = 1.1815e-05, Final residual = 9.27085e-07, No Iterations 5
time step continuity errors : sum local = 5.78438e-09, global = 9.3115e-10, cumulative = 0.000251813
smoothSolver:  Solving for nuTilda, Initial residual = 1.62077e-05, Final residual = 1.61037e-06, No Iterations 2
ExecutionTime = 7.72323 s  ClockTime = 10 s

Time = 295s

smoothSolver:  Solving for Ux, Initial residual = 1.08206e-05, Final residual = 1.02944e-06, No Iterations 2
smoothSolver:  Solving for Uy, Initial residual = 4.93043e-06, Final residual = 2.13289e-07, No Iterations 4
GAMG:  Solving for p, Initial residual = 1.15662e-05, Final residual = 1.127e-06, No Iterations 4
time step continuity errors : sum local = 7.0318e-09, global = -1.18492e-09, cumulative = 0.000251812
smoothSolver:  Solving for nuTilda, Initial residual = 1.58025e-05, Final residual = 1.57386e-06, No Iterations 2
ExecutionTime = 7.75762 s  ClockTime = 10 s

Time = 296s

smoothSolver:  Solving for Ux, Initial residual = 1.05469e-05, Final residual = 1.00073e-06, No Iterations 2
smoothSolver:  Solving for Uy, Initial residual = 4.78857e-06, Final residual = 2.0618e-07, No Iterations 4
GAMG:  Solving for p, Initial residual = 1.12203e-05, Final residual = 9.1435e-07, No Iterations 5
time step continuity errors : sum local = 5.70503e-09, global = 1.11381e-09, cumulative = 0.000251813
smoothSolver:  Solving for nuTilda, Initial residual = 1.54046e-05, Final residual = 1.53818e-06, No Iterations 2
ExecutionTime = 7.78863 s  ClockTime = 10 s

Time = 297s

smoothSolver:  Solving for Ux, Initial residual = 1.02698e-05, Final residual = 9.76004e-07, No Iterations 2
smoothSolver:  Solving for Uy, Initial residual = 4.67289e-06, Final residual = 2.01819e-07, No Iterations 4
GAMG:  Solving for p, Initial residual = 1.09246e-05, Final residual = 8.57196e-07, No Iterations 5
time step continuity errors : sum local = 5.34848e-09, global = 8.59608e-10, cumulative = 0.000251814
smoothSolver:  Solving for nuTilda, Initial residual = 1.50175e-05, Final residual = 4.15729e-07, No Iterations 4
ExecutionTime = 7.81524 s  ClockTime = 10 s

Time = 298s

smoothSolver:  Solving for Ux, Initial residual = 1.00035e-05, Final residual = 9.51613e-07, No Iterations 2
smoothSolver:  Solving for Uy, Initial residual = 4.55889e-06, Final residual = 1.9721e-07, No Iterations 4
GAMG:  Solving for p, Initial residual = 1.06937e-05, Final residual = 1.04242e-06, No Iterations 4
time step continuity errors : sum local = 6.50423e-09, global = -1.09535e-09, cumulative = 0.000251813
smoothSolver:  Solving for nuTilda, Initial residual = 1.46028e-05, Final residual = 1.45176e-06, No Iterations 2
ExecutionTime = 7.83887 s  ClockTime = 10 s

Time = 299s

smoothSolver:  Solving for Ux, Initial residual = 9.75042e-06, Final residual = 9.25078e-07, No Iterations 2
smoothSolver:  Solving for Uy, Initial residual = 4.42744e-06, Final residual = 1.90625e-07, No Iterations 4
GAMG:  Solving for p, Initial residual = 1.03739e-05, Final residual = 8.4468e-07, No Iterations 5
time step continuity errors : sum local = 5.27048e-09, global = 1.02886e-09, cumulative = 0.000251814
smoothSolver:  Solving for nuTilda, Initial residual = 1.42359e-05, Final residual = 1.41878e-06, No Iterations 2
ExecutionTime = 7.86212 s  ClockTime = 10 s

Time = 300s

smoothSolver:  Solving for Ux, Initial residual = 9.49423e-06, Final residual = 9.02222e-07, No Iterations 2
smoothSolver:  Solving for Uy, Initial residual = 4.32024e-06, Final residual = 1.8658e-07, No Iterations 4
GAMG:  Solving for p, Initial residual = 1.00994e-05, Final residual = 7.9136e-07, No Iterations 5
time step continuity errors : sum local = 4.93783e-09, global = 7.94675e-10, cumulative = 0.000251814
smoothSolver:  Solving for nuTilda, Initial residual = 1.38764e-05, Final residual = 1.3866e-06, No Iterations 2
ExecutionTime = 7.91789 s  ClockTime = 11 s

Time = 301s

smoothSolver:  Solving for Ux, Initial residual = 9.24801e-06, Final residual = 8.79684e-07, No Iterations 2
smoothSolver:  Solving for Uy, Initial residual = 4.21467e-06, Final residual = 1.8231e-07, No Iterations 4
GAMG:  Solving for p, Initial residual = 9.88503e-06, Final residual = 9.61455e-07, No Iterations 4
time step continuity errors : sum local = 5.99922e-09, global = -1.01044e-09, cumulative = 0.000251813
smoothSolver:  Solving for nuTilda, Initial residual = 1.35271e-05, Final residual = 3.74778e-07, No Iterations 4
ExecutionTime = 7.94041 s  ClockTime = 11 s

Time = 302s

smoothSolver:  Solving for Ux, Initial residual = 9.01408e-06, Final residual = 8.55185e-07, No Iterations 2
smoothSolver:  Solving for Uy, Initial residual = 4.09302e-06, Final residual = 1.76221e-07, No Iterations 4
GAMG:  Solving for p, Initial residual = 9.59236e-06, Final residual = 9.79938e-07, No Iterations 4
time step continuity errors : sum local = 6.1146e-09, global = -1.23257e-09, cumulative = 0.000251812
smoothSolver:  Solving for nuTilda, Initial residual = 1.31522e-05, Final residual = 1.30873e-06, No Iterations 2
ExecutionTime = 7.9642 s  ClockTime = 11 s

Time = 303s

smoothSolver:  Solving for Ux, Initial residual = 8.78137e-06, Final residual = 8.32627e-07, No Iterations 2
smoothSolver:  Solving for Uy, Initial residual = 3.98216e-06, Final residual = 1.71251e-07, No Iterations 4
GAMG:  Solving for p, Initial residual = 9.37934e-06, Final residual = 8.14234e-07, No Iterations 5
time step continuity errors : sum local = 5.08069e-09, global = 1.06307e-09, cumulative = 0.000251813
smoothSolver:  Solving for nuTilda, Initial residual = 1.28205e-05, Final residual = 1.27898e-06, No Iterations 2
ExecutionTime = 7.98614 s  ClockTime = 11 s

Time = 304s

smoothSolver:  Solving for Ux, Initial residual = 8.54891e-06, Final residual = 8.13478e-07, No Iterations 2
smoothSolver:  Solving for Uy, Initial residual = 3.89463e-06, Final residual = 1.68432e-07, No Iterations 4
GAMG:  Solving for p, Initial residual = 9.10189e-06, Final residual = 9.39609e-07, No Iterations 4
time step continuity errors : sum local = 5.86305e-09, global = -1.03571e-09, cumulative = 0.000251812
smoothSolver:  Solving for nuTilda, Initial residual = 1.24963e-05, Final residual = 3.45329e-07, No Iterations 4
ExecutionTime = 8.0088 s  ClockTime = 11 s

Time = 305s

smoothSolver:  Solving for Ux, Initial residual = 8.33108e-06, Final residual = 7.91865e-07, No Iterations 2
smoothSolver:  Solving for Uy, Initial residual = 3.78978e-06, Final residual = 1.63473e-07, No Iterations 4
GAMG:  Solving for p, Initial residual = 8.9076e-06, Final residual = 9.2598e-07, No Iterations 4
time step continuity errors : sum local = 5.77805e-09, global = -1.18965e-09, cumulative = 0.000251811
smoothSolver:  Solving for nuTilda, Initial residual = 1.21494e-05, Final residual = 1.20697e-06, No Iterations 2
ExecutionTime = 8.03078 s  ClockTime = 11 s

Time = 306s

smoothSolver:  Solving for Ux, Initial residual = 8.11636e-06, Final residual = 7.70627e-07, No Iterations 2
smoothSolver:  Solving for Uy, Initial residual = 3.6871e-06, Final residual = 1.58846e-07, No Iterations 4
GAMG:  Solving for p, Initial residual = 8.71634e-06, Final residual = 9.23433e-07, No Iterations 4
time step continuity errors : sum local = 5.76221e-09, global = -1.2672e-09, cumulative = 0.00025181
smoothSolver:  Solving for nuTilda, Initial residual = 1.18434e-05, Final residual = 1.17953e-06, No Iterations 2
ExecutionTime = 8.0523 s  ClockTime = 11 s

Time = 307s

smoothSolver:  Solving for Ux, Initial residual = 7.90599e-06, Final residual = 7.50551e-07, No Iterations 2
smoothSolver:  Solving for Uy, Initial residual = 3.59031e-06, Final residual = 1.54729e-07, No Iterations 4
GAMG:  Solving for p, Initial residual = 8.52826e-06, Final residual = 9.19754e-07, No Iterations 4
time step continuity errors : sum local = 5.7393e-09, global = -1.30353e-09, cumulative = 0.000251809
smoothSolver:  Solving for nuTilda, Initial residual = 1.15439e-05, Final residual = 1.15277e-06, No Iterations 2
ExecutionTime = 8.07426 s  ClockTime = 11 s

Time = 308s

smoothSolver:  Solving for Ux, Initial residual = 7.70084e-06, Final residual = 7.3144e-07, No Iterations 2
smoothSolver:  Solving for Uy, Initial residual = 3.49859e-06, Final residual = 1.50906e-07, No Iterations 4
GAMG:  Solving for p, Initial residual = 8.33738e-06, Final residual = 9.02185e-07, No Iterations 4
time step continuity errors : sum local = 5.6297e-09, global = -1.32577e-09, cumulative = 0.000251807
smoothSolver:  Solving for nuTilda, Initial residual = 1.12531e-05, Final residual = 3.11311e-07, No Iterations 4
ExecutionTime = 8.09523 s  ClockTime = 11 s

Time = 309s

smoothSolver:  Solving for Ux, Initial residual = 7.50133e-06, Final residual = 7.12823e-07, No Iterations 2
smoothSolver:  Solving for Uy, Initial residual = 3.40962e-06, Final residual = 1.47138e-07, No Iterations 4
GAMG:  Solving for p, Initial residual = 8.14626e-06, Final residual = 8.79481e-07, No Iterations 4
time step continuity errors : sum local = 5.48806e-09, global = -1.30564e-09, cumulative = 0.000251806
smoothSolver:  Solving for nuTilda, Initial residual = 1.09414e-05, Final residual = 1.08796e-06, No Iterations 2
ExecutionTime = 8.11757 s  ClockTime = 11 s

Time = 310s

smoothSolver:  Solving for Ux, Initial residual = 7.30725e-06, Final residual = 6.94431e-07, No Iterations 2
smoothSolver:  Solving for Uy, Initial residual = 3.32168e-06, Final residual = 1.43357e-07, No Iterations 4
GAMG:  Solving for p, Initial residual = 7.95352e-06, Final residual = 8.5173e-07, No Iterations 4
time step continuity errors : sum local = 5.31493e-09, global = -1.27075e-09, cumulative = 0.000251805
smoothSolver:  Solving for nuTilda, Initial residual = 1.0667e-05, Final residual = 1.06325e-06, No Iterations 2
ExecutionTime = 8.13874 s  ClockTime = 11 s

Time = 311s

smoothSolver:  Solving for Ux, Initial residual = 7.11835e-06, Final residual = 6.76353e-07, No Iterations 2
smoothSolver:  Solving for Uy, Initial residual = 3.23471e-06, Final residual = 1.39611e-07, No Iterations 4
GAMG:  Solving for p, Initial residual = 7.75981e-06, Final residual = 8.25742e-07, No Iterations 4
time step continuity errors : sum local = 5.1528e-09, global = -1.23307e-09, cumulative = 0.000251803
smoothSolver:  Solving for nuTilda, Initial residual = 1.03989e-05, Final residual = 1.03916e-06, No Iterations 2
ExecutionTime = 8.16179 s  ClockTime = 11 s

Time = 312s

smoothSolver:  Solving for Ux, Initial residual = 6.93436e-06, Final residual = 6.58756e-07, No Iterations 2
smoothSolver:  Solving for Uy, Initial residual = 3.1496e-06, Final residual = 1.35956e-07, No Iterations 4
GAMG:  Solving for p, Initial residual = 7.56637e-06, Final residual = 8.03342e-07, No Iterations 4
time step continuity errors : sum local = 5.01305e-09, global = -1.19811e-09, cumulative = 0.000251802
smoothSolver:  Solving for nuTilda, Initial residual = 1.01386e-05, Final residual = 2.80725e-07, No Iterations 4
ExecutionTime = 8.18542 s  ClockTime = 11 s

Time = 313s

smoothSolver:  Solving for Ux, Initial residual = 6.75511e-06, Final residual = 6.41726e-07, No Iterations 2
smoothSolver:  Solving for Uy, Initial residual = 3.06716e-06, Final residual = 1.32413e-07, No Iterations 4
GAMG:  Solving for p, Initial residual = 7.37541e-06, Final residual = 7.8371e-07, No Iterations 4
time step continuity errors : sum local = 4.89057e-09, global = -1.16742e-09, cumulative = 0.000251801
smoothSolver:  Solving for nuTilda, Initial residual = 9.85976e-06, Final residual = 9.80891e-07, No Iterations 2
ExecutionTime = 8.20981 s  ClockTime = 11 s


SIMPLE solution converged in 313 iterations

End

