/*---------------------------------------------------------------------------*\
  =========                 |
  \\      /  F ield         | OpenFOAM: The Open Source CFD Toolbox
   \\    /   O peration     | Website:  https://openfoam.org
    \\  /    A nd           | Version:  12
     \\/     M anipulation  |
\*---------------------------------------------------------------------------*/
Build  : 12-cc05c1b03c38
Exec   : foamRun
Date   : Oct 10 2024
Time   : 23:14:53
Host   : "DESKTOP-KBPC6IC"
PID    : 4406
I/O    : uncollated
Case   : /home/as/openfoam/OpenFOAM-12/test/multiphaseEuler/populationBalance/binaryBreakup
nProcs : 1
sigFpe : Enabling floating point exception trapping (FOAM_SIGFPE).
fileModificationChecking : Monitoring run-time modified files using timeStampMaster (fileModificationSkew 10)
allowSystemOperations : Allowing user-supplied system call operations

// * * * * * * * * * * * * * * * * * * * * * * * * * * * * * * * * * * * * * //
Create time

Create mesh for time = 0

Selecting solver multiphaseEuler
Selecting phaseSystem populationBalanceMultiphaseSystem
No MRF models present

Selecting phaseModel for air1: pureIsothermalPhaseModel
Selecting diameterModel for phase air1: velocityGroup
Selecting thermodynamics package 
{
    type            heRhoThermo;
    mixture         pureMixture;
    transport       const;
    thermo          hConst;
    equationOfState perfectGas;
    specie          specie;
    energy          sensibleInternalEnergy;
}

Calculating face flux field phi.air1
Selecting turbulence model type laminar
Selecting laminar stress model Stokes
Selecting phaseModel for air2: pureIsothermalPhaseModel
Selecting diameterModel for phase air2: velocityGroup
Selecting thermodynamics package 
{
    type            heRhoThermo;
    mixture         pureMixture;
    transport       const;
    thermo          hConst;
    equationOfState perfectGas;
    specie          specie;
    energy          sensibleInternalEnergy;
}

Calculating face flux field phi.air2
Selecting turbulence model type laminar
Selecting laminar stress model Stokes
Selecting phaseModel for air3: pureIsothermalPhaseModel
Selecting diameterModel for phase air3: velocityGroup
Selecting thermodynamics package 
{
    type            heRhoThermo;
    mixture         pureMixture;
    transport       const;
    thermo          hConst;
    equationOfState perfectGas;
    specie          specie;
    energy          sensibleInternalEnergy;
}

Calculating face flux field phi.air3
Selecting turbulence model type laminar
Selecting laminar stress model Stokes
Selecting phaseModel for water: pureIsothermalPhaseModel
Selecting diameterModel for phase water: none
Selecting thermodynamics package 
{
    type            heRhoThermo;
    mixture         pureMixture;
    transport       const;
    thermo          hConst;
    equationOfState rhoConst;
    specie          specie;
    energy          sensibleInternalEnergy;
}

Calculating face flux field phi.water
Selecting turbulence model type laminar
Selecting laminar stress model Stokes
Setting up population balance: bubbles
Selecting binary breakup model for bubbles: powerLawUniformBinary
Courant Number mean: 0 max: 0

PIMPLE: No convergence criteria found


PIMPLE: No corrector convergence criteria found
        Calculations will do 2 corrections


PIMPLE: Operating solver in transient mode with 2 outer correctors



Starting time loop

    - selecting all cells
    - selected 1 cell(s) with volume 1
Courant Number mean: 0 max: 0
Time = 0.1s

PIMPLE: Iteration 1
MULES: Solving for alpha.air1
MULES: Solving for alpha.air2
MULES: Solving for alpha.air3
MULES: Solving for alpha.water
air1 fraction, min, max = 0 0 0
air2 fraction, min, max = 0 0 0
air3 fraction, min, max = 0.05 0.05 0.05
water fraction, min, max = 0.95 0.95 0.95
Phase-sum volume fraction, min, max = 1 1 1
populationBalance bubbles: Iteration 1
diagonal:  Solving for f0.air1, Initial residual = 0, Final residual = 0, No Iterations 0
diagonal:  Solving for f1.air1, Initial residual = 0, Final residual = 0, No Iterations 0
diagonal:  Solving for f2.air1, Initial residual = 0, Final residual = 0, No Iterations 0
diagonal:  Solving for f3.air1, Initial residual = 0, Final residual = 0, No Iterations 0
diagonal:  Solving for f4.air1, Initial residual = 0, Final residual = 0, No Iterations 0
diagonal:  Solving for f5.air1, Initial residual = 0, Final residual = 0, No Iterations 0
diagonal:  Solving for f6.air1, Initial residual = 0, Final residual = 0, No Iterations 0
diagonal:  Solving for f7.air1, Initial residual = 0, Final residual = 0, No Iterations 0
diagonal:  Solving for f8.air1, Initial residual = 0, Final residual = 0, No Iterations 0
diagonal:  Solving for f9.air1, Initial residual = 0, Final residual = 0, No Iterations 0
diagonal:  Solving for f10.air1, Initial residual = 0, Final residual = 0, No Iterations 0
diagonal:  Solving for f11.air1, Initial residual = 0, Final residual = 0, No Iterations 0
diagonal:  Solving for f12.air1, Initial residual = 0, Final residual = 0, No Iterations 0
diagonal:  Solving for f13.air1, Initial residual = 0, Final residual = 0, No Iterations 0
diagonal:  Solving for f14.air1, Initial residual = 0, Final residual = 0, No Iterations 0
diagonal:  Solving for f15.air1, Initial residual = 0, Final residual = 0, No Iterations 0
diagonal:  Solving for f16.air1, Initial residual = 0, Final residual = 0, No Iterations 0
diagonal:  Solving for f17.air1, Initial residual = 0, Final residual = 0, No Iterations 0
diagonal:  Solving for f18.air1, Initial residual = 0, Final residual = 0, No Iterations 0
diagonal:  Solving for f19.air1, Initial residual = 0, Final residual = 0, No Iterations 0
diagonal:  Solving for f20.air2, Initial residual = 0, Final residual = 0, No Iterations 0
diagonal:  Solving for f21.air2, Initial residual = 0, Final residual = 0, No Iterations 0
diagonal:  Solving for f22.air2, Initial residual = 0, Final residual = 0, No Iterations 0
diagonal:  Solving for f23.air2, Initial residual = 0, Final residual = 0, No Iterations 0
diagonal:  Solving for f24.air2, Initial residual = 0, Final residual = 0, No Iterations 0
diagonal:  Solving for f25.air3, Initial residual = 0, Final residual = 0, No Iterations 0
diagonal:  Solving for f26.air3, Initial residual = 0, Final residual = 0, No Iterations 0
diagonal:  Solving for f27.air3, Initial residual = 0, Final residual = 0, No Iterations 0
diagonal:  Solving for f28.air3, Initial residual = 0, Final residual = 0, No Iterations 0
bubbles sizeGroup phase fraction first, last = 0 0.0472774
air1 sizeGroups-sum volume fraction, min, max = 1 1 1
air1 Sauter mean diameter, min, max = 0.331371 0.331371 0.331371
air2 sizeGroups-sum volume fraction, min, max = 1 1 1
air2 Sauter mean diameter, min, max = 0.650217 0.650217 0.650217
air3 sizeGroups-sum volume fraction, min, max = 1.00357 1.00357 1.00357
air3 Sauter mean diameter, min, max = 1.21951 1.21951 1.21951
Constructing momentum equations
diagonal:  Solving for p_rgh, Initial residual = 0, Final residual = 0, No Iterations 0
PIMPLE: Iteration 2
MULES: Solving for alpha.air1
MULES: Solving for alpha.air2
MULES: Solving for alpha.air3
MULES: Solving for alpha.water
air1 fraction, min, max = 5.07477e-06 5.07477e-06 5.07477e-06
air2 fraction, min, max = 0.000287481 0.000287481 0.000287481
air3 fraction, min, max = 0.0497091 0.0497091 0.0497091
water fraction, min, max = 0.95 0.95 0.95
Phase-sum volume fraction, min, max = 1 1 1
populationBalance bubbles: Iteration 1
diagonal:  Solving for f0.air1, Initial residual = 0, Final residual = 0, No Iterations 0
diagonal:  Solving for f1.air1, Initial residual = 0, Final residual = 0, No Iterations 0
diagonal:  Solving for f2.air1, Initial residual = 0, Final residual = 0, No Iterations 0
diagonal:  Solving for f3.air1, Initial residual = 0, Final residual = 0, No Iterations 0
diagonal:  Solving for f4.air1, Initial residual = 0, Final residual = 0, No Iterations 0
diagonal:  Solving for f5.air1, Initial residual = 0, Final residual = 0, No Iterations 0
diagonal:  Solving for f6.air1, Initial residual = 0, Final residual = 0, No Iterations 0
diagonal:  Solving for f7.air1, Initial residual = 0, Final residual = 0, No Iterations 0
diagonal:  Solving for f8.air1, Initial residual = 0, Final residual = 0, No Iterations 0
diagonal:  Solving for f9.air1, Initial residual = 0, Final residual = 0, No Iterations 0
diagonal:  Solving for f10.air1, Initial residual = 0, Final residual = 0, No Iterations 0
diagonal:  Solving for f11.air1, Initial residual = 0, Final residual = 0, No Iterations 0
diagonal:  Solving for f12.air1, Initial residual = 0, Final residual = 0, No Iterations 0
diagonal:  Solving for f13.air1, Initial residual = 0, Final residual = 0, No Iterations 0
diagonal:  Solving for f14.air1, Initial residual = 0, Final residual = 0, No Iterations 0
diagonal:  Solving for f15.air1, Initial residual = 0, Final residual = 0, No Iterations 0
diagonal:  Solving for f16.air1, Initial residual = 0, Final residual = 0, No Iterations 0
diagonal:  Solving for f17.air1, Initial residual = 0, Final residual = 0, No Iterations 0
diagonal:  Solving for f18.air1, Initial residual = 0, Final residual = 0, No Iterations 0
diagonal:  Solving for f19.air1, Initial residual = 0, Final residual = 0, No Iterations 0
diagonal:  Solving for f20.air2, Initial residual = 0, Final residual = 0, No Iterations 0
diagonal:  Solving for f21.air2, Initial residual = 0, Final residual = 0, No Iterations 0
diagonal:  Solving for f22.air2, Initial residual = 0, Final residual = 0, No Iterations 0
diagonal:  Solving for f23.air2, Initial residual = 0, Final residual = 0, No Iterations 0
diagonal:  Solving for f24.air2, Initial residual = 0, Final residual = 0, No Iterations 0
diagonal:  Solving for f25.air3, Initial residual = 0, Final residual = 0, No Iterations 0
diagonal:  Solving for f26.air3, Initial residual = 0, Final residual = 0, No Iterations 0
diagonal:  Solving for f27.air3, Initial residual = 0, Final residual = 0, No Iterations 0
diagonal:  Solving for f28.air3, Initial residual = 0, Final residual = 0, No Iterations 0
bubbles sizeGroup phase fraction first, last = 3.44245e-13 0.0469325
air1 sizeGroups-sum volume fraction, min, max = 1 1 1
air1 Sauter mean diameter, min, max = 0.325053 0.325053 0.325053
air2 sizeGroups-sum volume fraction, min, max = 1.00001 1.00001 1.00001
air2 Sauter mean diameter, min, max = 0.64974 0.64974 0.64974
air3 sizeGroups-sum volume fraction, min, max = 1.00022 1.00022 1.00022
air3 Sauter mean diameter, min, max = 1.22397 1.22397 1.22397
Constructing momentum equations
diagonal:  Solving for p_rgh, Initial residual = 0, Final residual = 0, No Iterations 0
ExecutionTime = 0.340901 s  ClockTime = 1 s

Courant Number mean: 0 max: 0
Time = 0.2s

PIMPLE: Iteration 1
MULES: Solving for alpha.air1
MULES: Solving for alpha.air2
MULES: Solving for alpha.air3
MULES: Solving for alpha.water
air1 fraction, min, max = 1.01672e-05 1.01672e-05 1.01672e-05
air2 fraction, min, max = 0.000574377 0.000574377 0.000574377
air3 fraction, min, max = 0.0494186 0.0494186 0.0494186
water fraction, min, max = 0.949998 0.949998 0.949998
Phase-sum volume fraction, min, max = 1 1 1
populationBalance bubbles: Iteration 1
diagonal:  Solving for f0.air1, Initial residual = 0, Final residual = 0, No Iterations 0
diagonal:  Solving for f1.air1, Initial residual = 0, Final residual = 0, No Iterations 0
diagonal:  Solving for f2.air1, Initial residual = 0, Final residual = 0, No Iterations 0
diagonal:  Solving for f3.air1, Initial residual = 0, Final residual = 0, No Iterations 0
diagonal:  Solving for f4.air1, Initial residual = 0, Final residual = 0, No Iterations 0
diagonal:  Solving for f5.air1, Initial residual = 0, Final residual = 0, No Iterations 0
diagonal:  Solving for f6.air1, Initial residual = 0, Final residual = 0, No Iterations 0
diagonal:  Solving for f7.air1, Initial residual = 0, Final residual = 0, No Iterations 0
diagonal:  Solving for f8.air1, Initial residual = 0, Final residual = 0, No Iterations 0
diagonal:  Solving for f9.air1, Initial residual = 0, Final residual = 0, No Iterations 0
diagonal:  Solving for f10.air1, Initial residual = 0, Final residual = 0, No Iterations 0
diagonal:  Solving for f11.air1, Initial residual = 0, Final residual = 0, No Iterations 0
diagonal:  Solving for f12.air1, Initial residual = 0, Final residual = 0, No Iterations 0
diagonal:  Solving for f13.air1, Initial residual = 0, Final residual = 0, No Iterations 0
diagonal:  Solving for f14.air1, Initial residual = 0, Final residual = 0, No Iterations 0
diagonal:  Solving for f15.air1, Initial residual = 0, Final residual = 0, No Iterations 0
diagonal:  Solving for f16.air1, Initial residual = 0, Final residual = 0, No Iterations 0
diagonal:  Solving for f17.air1, Initial residual = 0, Final residual = 0, No Iterations 0
diagonal:  Solving for f18.air1, Initial residual = 0, Final residual = 0, No Iterations 0
diagonal:  Solving for f19.air1, Initial residual = 0, Final residual = 0, No Iterations 0
diagonal:  Solving for f20.air2, Initial residual = 0, Final residual = 0, No Iterations 0
diagonal:  Solving for f21.air2, Initial residual = 0, Final residual = 0, No Iterations 0
diagonal:  Solving for f22.air2, Initial residual = 0, Final residual = 0, No Iterations 0
diagonal:  Solving for f23.air2, Initial residual = 0, Final residual = 0, No Iterations 0
diagonal:  Solving for f24.air2, Initial residual = 0, Final residual = 0, No Iterations 0
diagonal:  Solving for f25.air3, Initial residual = 0, Final residual = 0, No Iterations 0
diagonal:  Solving for f26.air3, Initial residual = 0, Final residual = 0, No Iterations 0
diagonal:  Solving for f27.air3, Initial residual = 0, Final residual = 0, No Iterations 0
diagonal:  Solving for f28.air3, Initial residual = 0, Final residual = 0, No Iterations 0
bubbles sizeGroup phase fraction first, last = 6.89722e-13 0.0441313
air1 sizeGroups-sum volume fraction, min, max = 1 1 1
air1 Sauter mean diameter, min, max = 0.325052 0.325052 0.325052
air2 sizeGroups-sum volume fraction, min, max = 1.00001 1.00001 1.00001
air2 Sauter mean diameter, min, max = 0.64961 0.64961 0.64961
air3 sizeGroups-sum volume fraction, min, max = 1.00357 1.00357 1.00357
air3 Sauter mean diameter, min, max = 1.20436 1.20436 1.20436
Constructing momentum equations
diagonal:  Solving for p_rgh, Initial residual = 0, Final residual = 0, No Iterations 0
PIMPLE: Iteration 2
MULES: Solving for alpha.air1
MULES: Solving for alpha.air2
MULES: Solving for alpha.air3
MULES: Solving for alpha.water
air1 fraction, min, max = 1.015e-05 1.015e-05 1.015e-05
air2 fraction, min, max = 0.000571798 0.000571798 0.000571798
air3 fraction, min, max = 0.0494196 0.0494196 0.0494196
water fraction, min, max = 0.949998 0.949998 0.949998
Phase-sum volume fraction, min, max = 1 1 1
populationBalance bubbles: Iteration 1
diagonal:  Solving for f0.air1, Initial residual = 0, Final residual = 0, No Iterations 0
diagonal:  Solving for f1.air1, Initial residual = 0, Final residual = 0, No Iterations 0
diagonal:  Solving for f2.air1, Initial residual = 0, Final residual = 0, No Iterations 0
diagonal:  Solving for f3.air1, Initial residual = 0, Final residual = 0, No Iterations 0
diagonal:  Solving for f4.air1, Initial residual = 0, Final residual = 0, No Iterations 0
diagonal:  Solving for f5.air1, Initial residual = 0, Final residual = 0, No Iterations 0
diagonal:  Solving for f6.air1, Initial residual = 0, Final residual = 0, No Iterations 0
diagonal:  Solving for f7.air1, Initial residual = 0, Final residual = 0, No Iterations 0
diagonal:  Solving for f8.air1, Initial residual = 0, Final residual = 0, No Iterations 0
diagonal:  Solving for f9.air1, Initial residual = 0, Final residual = 0, No Iterations 0
diagonal:  Solving for f10.air1, Initial residual = 0, Final residual = 0, No Iterations 0
diagonal:  Solving for f11.air1, Initial residual = 0, Final residual = 0, No Iterations 0
diagonal:  Solving for f12.air1, Initial residual = 0, Final residual = 0, No Iterations 0
diagonal:  Solving for f13.air1, Initial residual = 0, Final residual = 0, No Iterations 0
diagonal:  Solving for f14.air1, Initial residual = 0, Final residual = 0, No Iterations 0
diagonal:  Solving for f15.air1, Initial residual = 0, Final residual = 0, No Iterations 0
diagonal:  Solving for f16.air1, Initial residual = 0, Final residual = 0, No Iterations 0
diagonal:  Solving for f17.air1, Initial residual = 0, Final residual = 0, No Iterations 0
diagonal:  Solving for f18.air1, Initial residual = 0, Final residual = 0, No Iterations 0
diagonal:  Solving for f19.air1, Initial residual = 0, Final residual = 0, No Iterations 0
diagonal:  Solving for f20.air2, Initial residual = 0, Final residual = 0, No Iterations 0
diagonal:  Solving for f21.air2, Initial residual = 0, Final residual = 0, No Iterations 0
diagonal:  Solving for f22.air2, Initial residual = 0, Final residual = 0, No Iterations 0
diagonal:  Solving for f23.air2, Initial residual = 0, Final residual = 0, No Iterations 0
diagonal:  Solving for f24.air2, Initial residual = 0, Final residual = 0, No Iterations 0
diagonal:  Solving for f25.air3, Initial residual = 0, Final residual = 0, No Iterations 0
diagonal:  Solving for f26.air3, Initial residual = 0, Final residual = 0, No Iterations 0
diagonal:  Solving for f27.air3, Initial residual = 0, Final residual = 0, No Iterations 0
diagonal:  Solving for f28.air3, Initial residual = 0, Final residual = 0, No Iterations 0
bubbles sizeGroup phase fraction first, last = 6.88555e-13 0.0440537
air1 sizeGroups-sum volume fraction, min, max = 1 1 1
air1 Sauter mean diameter, min, max = 0.325052 0.325052 0.325052
air2 sizeGroups-sum volume fraction, min, max = 1 1 1
air2 Sauter mean diameter, min, max = 0.64962 0.64962 0.64962
air3 sizeGroups-sum volume fraction, min, max = 1.00044 1.00044 1.00044
air3 Sauter mean diameter, min, max = 1.20835 1.20835 1.20835
Constructing momentum equations
diagonal:  Solving for p_rgh, Initial residual = 0, Final residual = 0, No Iterations 0
ExecutionTime = 0.379592 s  ClockTime = 1 s

Courant Number mean: 0 max: 0
Time = 0.3s

PIMPLE: Iteration 1
MULES: Solving for alpha.air1
MULES: Solving for alpha.air2
MULES: Solving for alpha.air3
MULES: Solving for alpha.water
air1 fraction, min, max = 1.52418e-05 1.52418e-05 1.52418e-05
air2 fraction, min, max = 0.000857087 0.000857087 0.000857087
air3 fraction, min, max = 0.0491308 0.0491308 0.0491308
water fraction, min, max = 0.949998 0.949998 0.949998
Phase-sum volume fraction, min, max = 1 1 1
populationBalance bubbles: Iteration 1
diagonal:  Solving for f0.air1, Initial residual = 0, Final residual = 0, No Iterations 0
diagonal:  Solving for f1.air1, Initial residual = 0, Final residual = 0, No Iterations 0
diagonal:  Solving for f2.air1, Initial residual = 0, Final residual = 0, No Iterations 0
diagonal:  Solving for f3.air1, Initial residual = 0, Final residual = 0, No Iterations 0
diagonal:  Solving for f4.air1, Initial residual = 0, Final residual = 0, No Iterations 0
diagonal:  Solving for f5.air1, Initial residual = 0, Final residual = 0, No Iterations 0
diagonal:  Solving for f6.air1, Initial residual = 0, Final residual = 0, No Iterations 0
diagonal:  Solving for f7.air1, Initial residual = 0, Final residual = 0, No Iterations 0
diagonal:  Solving for f8.air1, Initial residual = 0, Final residual = 0, No Iterations 0
diagonal:  Solving for f9.air1, Initial residual = 0, Final residual = 0, No Iterations 0
diagonal:  Solving for f10.air1, Initial residual = 0, Final residual = 0, No Iterations 0
diagonal:  Solving for f11.air1, Initial residual = 0, Final residual = 0, No Iterations 0
diagonal:  Solving for f12.air1, Initial residual = 0, Final residual = 0, No Iterations 0
diagonal:  Solving for f13.air1, Initial residual = 0, Final residual = 0, No Iterations 0
diagonal:  Solving for f14.air1, Initial residual = 0, Final residual = 0, No Iterations 0
diagonal:  Solving for f15.air1, Initial residual = 0, Final residual = 0, No Iterations 0
diagonal:  Solving for f16.air1, Initial residual = 0, Final residual = 0, No Iterations 0
diagonal:  Solving for f17.air1, Initial residual = 0, Final residual = 0, No Iterations 0
diagonal:  Solving for f18.air1, Initial residual = 0, Final residual = 0, No Iterations 0
diagonal:  Solving for f19.air1, Initial residual = 0, Final residual = 0, No Iterations 0
diagonal:  Solving for f20.air2, Initial residual = 0, Final residual = 0, No Iterations 0
diagonal:  Solving for f21.air2, Initial residual = 0, Final residual = 0, No Iterations 0
diagonal:  Solving for f22.air2, Initial residual = 0, Final residual = 0, No Iterations 0
diagonal:  Solving for f23.air2, Initial residual = 0, Final residual = 0, No Iterations 0
diagonal:  Solving for f24.air2, Initial residual = 0, Final residual = 0, No Iterations 0
diagonal:  Solving for f25.air3, Initial residual = 0, Final residual = 0, No Iterations 0
diagonal:  Solving for f26.air3, Initial residual = 0, Final residual = 0, No Iterations 0
diagonal:  Solving for f27.air3, Initial residual = 0, Final residual = 0, No Iterations 0
diagonal:  Solving for f28.air3, Initial residual = 0, Final residual = 0, No Iterations 0
bubbles sizeGroup phase fraction first, last = 1.03402e-12 0.0414243
air1 sizeGroups-sum volume fraction, min, max = 1 1 1
air1 Sauter mean diameter, min, max = 0.325051 0.325051 0.325051
air2 sizeGroups-sum volume fraction, min, max = 1 1 1
air2 Sauter mean diameter, min, max = 0.64949 0.64949 0.64949
air3 sizeGroups-sum volume fraction, min, max = 1.00363 1.00363 1.00363
air3 Sauter mean diameter, min, max = 1.19003 1.19003 1.19003
Constructing momentum equations
diagonal:  Solving for p_rgh, Initial residual = 0, Final residual = 0, No Iterations 0
PIMPLE: Iteration 2
MULES: Solving for alpha.air1
MULES: Solving for alpha.air2
MULES: Solving for alpha.air3
MULES: Solving for alpha.water
air1 fraction, min, max = 1.52258e-05 1.52258e-05 1.52258e-05
air2 fraction, min, max = 0.000854584 0.000854584 0.000854584
air3 fraction, min, max = 0.0491317 0.0491317 0.0491317
water fraction, min, max = 0.949998 0.949998 0.949998
Phase-sum volume fraction, min, max = 1 1 1
populationBalance bubbles: Iteration 1
diagonal:  Solving for f0.air1, Initial residual = 0, Final residual = 0, No Iterations 0
diagonal:  Solving for f1.air1, Initial residual = 0, Final residual = 0, No Iterations 0
diagonal:  Solving for f2.air1, Initial residual = 0, Final residual = 0, No Iterations 0
diagonal:  Solving for f3.air1, Initial residual = 0, Final residual = 0, No Iterations 0
diagonal:  Solving for f4.air1, Initial residual = 0, Final residual = 0, No Iterations 0
diagonal:  Solving for f5.air1, Initial residual = 0, Final residual = 0, No Iterations 0
diagonal:  Solving for f6.air1, Initial residual = 0, Final residual = 0, No Iterations 0
diagonal:  Solving for f7.air1, Initial residual = 0, Final residual = 0, No Iterations 0
diagonal:  Solving for f8.air1, Initial residual = 0, Final residual = 0, No Iterations 0
diagonal:  Solving for f9.air1, Initial residual = 0, Final residual = 0, No Iterations 0
diagonal:  Solving for f10.air1, Initial residual = 0, Final residual = 0, No Iterations 0
diagonal:  Solving for f11.air1, Initial residual = 0, Final residual = 0, No Iterations 0
diagonal:  Solving for f12.air1, Initial residual = 0, Final residual = 0, No Iterations 0
diagonal:  Solving for f13.air1, Initial residual = 0, Final residual = 0, No Iterations 0
diagonal:  Solving for f14.air1, Initial residual = 0, Final residual = 0, No Iterations 0
diagonal:  Solving for f15.air1, Initial residual = 0, Final residual = 0, No Iterations 0
diagonal:  Solving for f16.air1, Initial residual = 0, Final residual = 0, No Iterations 0
diagonal:  Solving for f17.air1, Initial residual = 0, Final residual = 0, No Iterations 0
diagonal:  Solving for f18.air1, Initial residual = 0, Final residual = 0, No Iterations 0
diagonal:  Solving for f19.air1, Initial residual = 0, Final residual = 0, No Iterations 0
diagonal:  Solving for f20.air2, Initial residual = 0, Final residual = 0, No Iterations 0
diagonal:  Solving for f21.air2, Initial residual = 0, Final residual = 0, No Iterations 0
diagonal:  Solving for f22.air2, Initial residual = 0, Final residual = 0, No Iterations 0
diagonal:  Solving for f23.air2, Initial residual = 0, Final residual = 0, No Iterations 0
diagonal:  Solving for f24.air2, Initial residual = 0, Final residual = 0, No Iterations 0
diagonal:  Solving for f25.air3, Initial residual = 0, Final residual = 0, No Iterations 0
diagonal:  Solving for f26.air3, Initial residual = 0, Final residual = 0, No Iterations 0
diagonal:  Solving for f27.air3, Initial residual = 0, Final residual = 0, No Iterations 0
diagonal:  Solving for f28.air3, Initial residual = 0, Final residual = 0, No Iterations 0
bubbles sizeGroup phase fraction first, last = 1.03294e-12 0.0413513
air1 sizeGroups-sum volume fraction, min, max = 1 1 1
air1 Sauter mean diameter, min, max = 0.325051 0.325051 0.325051
air2 sizeGroups-sum volume fraction, min, max = 1 1 1
air2 Sauter mean diameter, min, max = 0.649497 0.649497 0.649497
air3 sizeGroups-sum volume fraction, min, max = 1.00065 1.00065 1.00065
air3 Sauter mean diameter, min, max = 1.19374 1.19374 1.19374
Constructing momentum equations
diagonal:  Solving for p_rgh, Initial residual = 0, Final residual = 0, No Iterations 0
ExecutionTime = 0.41756 s  ClockTime = 1 s

Courant Number mean: 0 max: 0
Time = 0.4s

PIMPLE: Iteration 1
MULES: Solving for alpha.air1
MULES: Solving for alpha.air2
MULES: Solving for alpha.air3
MULES: Solving for alpha.water
air1 fraction, min, max = 2.03174e-05 2.03174e-05 2.03174e-05
air2 fraction, min, max = 0.00113828 0.00113828 0.00113828
air3 fraction, min, max = 0.0488445 0.0488445 0.0488445
water fraction, min, max = 0.949998 0.949998 0.949998
Phase-sum volume fraction, min, max = 1 1 1
populationBalance bubbles: Iteration 1
diagonal:  Solving for f0.air1, Initial residual = 0, Final residual = 0, No Iterations 0
diagonal:  Solving for f1.air1, Initial residual = 0, Final residual = 0, No Iterations 0
diagonal:  Solving for f2.air1, Initial residual = 0, Final residual = 0, No Iterations 0
diagonal:  Solving for f3.air1, Initial residual = 0, Final residual = 0, No Iterations 0
diagonal:  Solving for f4.air1, Initial residual = 0, Final residual = 0, No Iterations 0
diagonal:  Solving for f5.air1, Initial residual = 0, Final residual = 0, No Iterations 0
diagonal:  Solving for f6.air1, Initial residual = 0, Final residual = 0, No Iterations 0
diagonal:  Solving for f7.air1, Initial residual = 0, Final residual = 0, No Iterations 0
diagonal:  Solving for f8.air1, Initial residual = 0, Final residual = 0, No Iterations 0
diagonal:  Solving for f9.air1, Initial residual = 0, Final residual = 0, No Iterations 0
diagonal:  Solving for f10.air1, Initial residual = 0, Final residual = 0, No Iterations 0
diagonal:  Solving for f11.air1, Initial residual = 0, Final residual = 0, No Iterations 0
diagonal:  Solving for f12.air1, Initial residual = 0, Final residual = 0, No Iterations 0
diagonal:  Solving for f13.air1, Initial residual = 0, Final residual = 0, No Iterations 0
diagonal:  Solving for f14.air1, Initial residual = 0, Final residual = 0, No Iterations 0
diagonal:  Solving for f15.air1, Initial residual = 0, Final residual = 0, No Iterations 0
diagonal:  Solving for f16.air1, Initial residual = 0, Final residual = 0, No Iterations 0
diagonal:  Solving for f17.air1, Initial residual = 0, Final residual = 0, No Iterations 0
diagonal:  Solving for f18.air1, Initial residual = 0, Final residual = 0, No Iterations 0
diagonal:  Solving for f19.air1, Initial residual = 0, Final residual = 0, No Iterations 0
diagonal:  Solving for f20.air2, Initial residual = 0, Final residual = 0, No Iterations 0
diagonal:  Solving for f21.air2, Initial residual = 0, Final residual = 0, No Iterations 0
diagonal:  Solving for f22.air2, Initial residual = 0, Final residual = 0, No Iterations 0
diagonal:  Solving for f23.air2, Initial residual = 0, Final residual = 0, No Iterations 0
diagonal:  Solving for f24.air2, Initial residual = 0, Final residual = 0, No Iterations 0
diagonal:  Solving for f25.air3, Initial residual = 0, Final residual = 0, No Iterations 0
diagonal:  Solving for f26.air3, Initial residual = 0, Final residual = 0, No Iterations 0
diagonal:  Solving for f27.air3, Initial residual = 0, Final residual = 0, No Iterations 0
diagonal:  Solving for f28.air3, Initial residual = 0, Final residual = 0, No Iterations 0
bubbles sizeGroup phase fraction first, last = 1.37842e-12 0.0388833
air1 sizeGroups-sum volume fraction, min, max = 1 1 1
air1 Sauter mean diameter, min, max = 0.32505 0.32505 0.32505
air2 sizeGroups-sum volume fraction, min, max = 1 1 1
air2 Sauter mean diameter, min, max = 0.649368 0.649368 0.649368
air3 sizeGroups-sum volume fraction, min, max = 1.00368 1.00368 1.00368
air3 Sauter mean diameter, min, max = 1.17661 1.17661 1.17661
Constructing momentum equations
diagonal:  Solving for p_rgh, Initial residual = 0, Final residual = 0, No Iterations 0
PIMPLE: Iteration 2
MULES: Solving for alpha.air1
MULES: Solving for alpha.air2
MULES: Solving for alpha.air3
MULES: Solving for alpha.water
air1 fraction, min, max = 2.03022e-05 2.03022e-05 2.03022e-05
air2 fraction, min, max = 0.00113584 0.00113584 0.00113584
air3 fraction, min, max = 0.0488454 0.0488454 0.0488454
water fraction, min, max = 0.949998 0.949998 0.949998
Phase-sum volume fraction, min, max = 1 1 1
populationBalance bubbles: Iteration 1
diagonal:  Solving for f0.air1, Initial residual = 0, Final residual = 0, No Iterations 0
diagonal:  Solving for f1.air1, Initial residual = 0, Final residual = 0, No Iterations 0
diagonal:  Solving for f2.air1, Initial residual = 0, Final residual = 0, No Iterations 0
diagonal:  Solving for f3.air1, Initial residual = 0, Final residual = 0, No Iterations 0
diagonal:  Solving for f4.air1, Initial residual = 0, Final residual = 0, No Iterations 0
diagonal:  Solving for f5.air1, Initial residual = 0, Final residual = 0, No Iterations 0
diagonal:  Solving for f6.air1, Initial residual = 0, Final residual = 0, No Iterations 0
diagonal:  Solving for f7.air1, Initial residual = 0, Final residual = 0, No Iterations 0
diagonal:  Solving for f8.air1, Initial residual = 0, Final residual = 0, No Iterations 0
diagonal:  Solving for f9.air1, Initial residual = 0, Final residual = 0, No Iterations 0
diagonal:  Solving for f10.air1, Initial residual = 0, Final residual = 0, No Iterations 0
diagonal:  Solving for f11.air1, Initial residual = 0, Final residual = 0, No Iterations 0
diagonal:  Solving for f12.air1, Initial residual = 0, Final residual = 0, No Iterations 0
diagonal:  Solving for f13.air1, Initial residual = 0, Final residual = 0, No Iterations 0
diagonal:  Solving for f14.air1, Initial residual = 0, Final residual = 0, No Iterations 0
diagonal:  Solving for f15.air1, Initial residual = 0, Final residual = 0, No Iterations 0
diagonal:  Solving for f16.air1, Initial residual = 0, Final residual = 0, No Iterations 0
diagonal:  Solving for f17.air1, Initial residual = 0, Final residual = 0, No Iterations 0
diagonal:  Solving for f18.air1, Initial residual = 0, Final residual = 0, No Iterations 0
diagonal:  Solving for f19.air1, Initial residual = 0, Final residual = 0, No Iterations 0
diagonal:  Solving for f20.air2, Initial residual = 0, Final residual = 0, No Iterations 0
diagonal:  Solving for f21.air2, Initial residual = 0, Final residual = 0, No Iterations 0
diagonal:  Solving for f22.air2, Initial residual = 0, Final residual = 0, No Iterations 0
diagonal:  Solving for f23.air2, Initial residual = 0, Final residual = 0, No Iterations 0
diagonal:  Solving for f24.air2, Initial residual = 0, Final residual = 0, No Iterations 0
diagonal:  Solving for f25.air3, Initial residual = 0, Final residual = 0, No Iterations 0
diagonal:  Solving for f26.air3, Initial residual = 0, Final residual = 0, No Iterations 0
diagonal:  Solving for f27.air3, Initial residual = 0, Final residual = 0, No Iterations 0
diagonal:  Solving for f28.air3, Initial residual = 0, Final residual = 0, No Iterations 0
bubbles sizeGroup phase fraction first, last = 1.37739e-12 0.0388148
air1 sizeGroups-sum volume fraction, min, max = 1 1 1
air1 Sauter mean diameter, min, max = 0.32505 0.32505 0.32505
air2 sizeGroups-sum volume fraction, min, max = 1 1 1
air2 Sauter mean diameter, min, max = 0.649374 0.649374 0.649374
air3 sizeGroups-sum volume fraction, min, max = 1.00085 1.00085 1.00085
air3 Sauter mean diameter, min, max = 1.18006 1.18006 1.18006
Constructing momentum equations
diagonal:  Solving for p_rgh, Initial residual = 0, Final residual = 0, No Iterations 0
ExecutionTime = 0.471632 s  ClockTime = 1 s

Courant Number mean: 0 max: 0
Time = 0.5s

PIMPLE: Iteration 1
MULES: Solving for alpha.air1
MULES: Solving for alpha.air2
MULES: Solving for alpha.air3
MULES: Solving for alpha.water
air1 fraction, min, max = 2.53934e-05 2.53934e-05 2.53934e-05
air2 fraction, min, max = 0.00141795 0.00141795 0.00141795
air3 fraction, min, max = 0.0485598 0.0485598 0.0485598
water fraction, min, max = 0.949998 0.949998 0.949998
Phase-sum volume fraction, min, max = 1 1 1
populationBalance bubbles: Iteration 1
diagonal:  Solving for f0.air1, Initial residual = 0, Final residual = 0, No Iterations 0
diagonal:  Solving for f1.air1, Initial residual = 0, Final residual = 0, No Iterations 0
diagonal:  Solving for f2.air1, Initial residual = 0, Final residual = 0, No Iterations 0
diagonal:  Solving for f3.air1, Initial residual = 0, Final residual = 0, No Iterations 0
diagonal:  Solving for f4.air1, Initial residual = 0, Final residual = 0, No Iterations 0
diagonal:  Solving for f5.air1, Initial residual = 0, Final residual = 0, No Iterations 0
diagonal:  Solving for f6.air1, Initial residual = 0, Final residual = 0, No Iterations 0
diagonal:  Solving for f7.air1, Initial residual = 0, Final residual = 0, No Iterations 0
diagonal:  Solving for f8.air1, Initial residual = 0, Final residual = 0, No Iterations 0
diagonal:  Solving for f9.air1, Initial residual = 0, Final residual = 0, No Iterations 0
diagonal:  Solving for f10.air1, Initial residual = 0, Final residual = 0, No Iterations 0
diagonal:  Solving for f11.air1, Initial residual = 0, Final residual = 0, No Iterations 0
diagonal:  Solving for f12.air1, Initial residual = 0, Final residual = 0, No Iterations 0
diagonal:  Solving for f13.air1, Initial residual = 0, Final residual = 0, No Iterations 0
diagonal:  Solving for f14.air1, Initial residual = 0, Final residual = 0, No Iterations 0
diagonal:  Solving for f15.air1, Initial residual = 0, Final residual = 0, No Iterations 0
diagonal:  Solving for f16.air1, Initial residual = 0, Final residual = 0, No Iterations 0
diagonal:  Solving for f17.air1, Initial residual = 0, Final residual = 0, No Iterations 0
diagonal:  Solving for f18.air1, Initial residual = 0, Final residual = 0, No Iterations 0
diagonal:  Solving for f19.air1, Initial residual = 0, Final residual = 0, No Iterations 0
diagonal:  Solving for f20.air2, Initial residual = 0, Final residual = 0, No Iterations 0
diagonal:  Solving for f21.air2, Initial residual = 0, Final residual = 0, No Iterations 0
diagonal:  Solving for f22.air2, Initial residual = 0, Final residual = 0, No Iterations 0
diagonal:  Solving for f23.air2, Initial residual = 0, Final residual = 0, No Iterations 0
diagonal:  Solving for f24.air2, Initial residual = 0, Final residual = 0, No Iterations 0
diagonal:  Solving for f25.air3, Initial residual = 0, Final residual = 0, No Iterations 0
diagonal:  Solving for f26.air3, Initial residual = 0, Final residual = 0, No Iterations 0
diagonal:  Solving for f27.air3, Initial residual = 0, Final residual = 0, No Iterations 0
diagonal:  Solving for f28.air3, Initial residual = 0, Final residual = 0, No Iterations 0
bubbles sizeGroup phase fraction first, last = 1.72288e-12 0.0364982
air1 sizeGroups-sum volume fraction, min, max = 1 1 1
air1 Sauter mean diameter, min, max = 0.325048 0.325048 0.325048
air2 sizeGroups-sum volume fraction, min, max = 1 1 1
air2 Sauter mean diameter, min, max = 0.649245 0.649245 0.649245
air3 sizeGroups-sum volume fraction, min, max = 1.00373 1.00373 1.00373
air3 Sauter mean diameter, min, max = 1.16402 1.16402 1.16402
Constructing momentum equations
diagonal:  Solving for p_rgh, Initial residual = 0, Final residual = 0, No Iterations 0
PIMPLE: Iteration 2
MULES: Solving for alpha.air1
MULES: Solving for alpha.air2
MULES: Solving for alpha.air3
MULES: Solving for alpha.water
air1 fraction, min, max = 2.5379e-05 2.5379e-05 2.5379e-05
air2 fraction, min, max = 0.00141556 0.00141556 0.00141556
air3 fraction, min, max = 0.0485606 0.0485606 0.0485606
water fraction, min, max = 0.949998 0.949998 0.949998
Phase-sum volume fraction, min, max = 1 1 1
populationBalance bubbles: Iteration 1
diagonal:  Solving for f0.air1, Initial residual = 0, Final residual = 0, No Iterations 0
diagonal:  Solving for f1.air1, Initial residual = 0, Final residual = 0, No Iterations 0
diagonal:  Solving for f2.air1, Initial residual = 0, Final residual = 0, No Iterations 0
diagonal:  Solving for f3.air1, Initial residual = 0, Final residual = 0, No Iterations 0
diagonal:  Solving for f4.air1, Initial residual = 0, Final residual = 0, No Iterations 0
diagonal:  Solving for f5.air1, Initial residual = 0, Final residual = 0, No Iterations 0
diagonal:  Solving for f6.air1, Initial residual = 0, Final residual = 0, No Iterations 0
diagonal:  Solving for f7.air1, Initial residual = 0, Final residual = 0, No Iterations 0
diagonal:  Solving for f8.air1, Initial residual = 0, Final residual = 0, No Iterations 0
diagonal:  Solving for f9.air1, Initial residual = 0, Final residual = 0, No Iterations 0
diagonal:  Solving for f10.air1, Initial residual = 0, Final residual = 0, No Iterations 0
diagonal:  Solving for f11.air1, Initial residual = 0, Final residual = 0, No Iterations 0
diagonal:  Solving for f12.air1, Initial residual = 0, Final residual = 0, No Iterations 0
diagonal:  Solving for f13.air1, Initial residual = 0, Final residual = 0, No Iterations 0
diagonal:  Solving for f14.air1, Initial residual = 0, Final residual = 0, No Iterations 0
diagonal:  Solving for f15.air1, Initial residual = 0, Final residual = 0, No Iterations 0
diagonal:  Solving for f16.air1, Initial residual = 0, Final residual = 0, No Iterations 0
diagonal:  Solving for f17.air1, Initial residual = 0, Final residual = 0, No Iterations 0
diagonal:  Solving for f18.air1, Initial residual = 0, Final residual = 0, No Iterations 0
diagonal:  Solving for f19.air1, Initial residual = 0, Final residual = 0, No Iterations 0
diagonal:  Solving for f20.air2, Initial residual = 0, Final residual = 0, No Iterations 0
diagonal:  Solving for f21.air2, Initial residual = 0, Final residual = 0, No Iterations 0
diagonal:  Solving for f22.air2, Initial residual = 0, Final residual = 0, No Iterations 0
diagonal:  Solving for f23.air2, Initial residual = 0, Final residual = 0, No Iterations 0
diagonal:  Solving for f24.air2, Initial residual = 0, Final residual = 0, No Iterations 0
diagonal:  Solving for f25.air3, Initial residual = 0, Final residual = 0, No Iterations 0
diagonal:  Solving for f26.air3, Initial residual = 0, Final residual = 0, No Iterations 0
diagonal:  Solving for f27.air3, Initial residual = 0, Final residual = 0, No Iterations 0
diagonal:  Solving for f28.air3, Initial residual = 0, Final residual = 0, No Iterations 0
bubbles sizeGroup phase fraction first, last = 1.72191e-12 0.0364338
air1 sizeGroups-sum volume fraction, min, max = 1 1 1
air1 Sauter mean diameter, min, max = 0.325048 0.325048 0.325048
air2 sizeGroups-sum volume fraction, min, max = 1 1 1
air2 Sauter mean diameter, min, max = 0.64925 0.64925 0.64925
air3 sizeGroups-sum volume fraction, min, max = 1.00104 1.00104 1.00104
air3 Sauter mean diameter, min, max = 1.16723 1.16723 1.16723
Constructing momentum equations
diagonal:  Solving for p_rgh, Initial residual = 0, Final residual = 0, No Iterations 0
ExecutionTime = 0.530249 s  ClockTime = 1 s

Courant Number mean: 0 max: 0
Time = 0.6s

PIMPLE: Iteration 1
MULES: Solving for alpha.air1
MULES: Solving for alpha.air2
MULES: Solving for alpha.air3
MULES: Solving for alpha.water
air1 fraction, min, max = 3.04699e-05 3.04699e-05 3.04699e-05
air2 fraction, min, max = 0.00169609 0.00169609 0.00169609
air3 fraction, min, max = 0.0482765 0.0482765 0.0482765
water fraction, min, max = 0.949998 0.949998 0.949998
Phase-sum volume fraction, min, max = 1 1 1
populationBalance bubbles: Iteration 1
diagonal:  Solving for f0.air1, Initial residual = 0, Final residual = 0, No Iterations 0
diagonal:  Solving for f1.air1, Initial residual = 0, Final residual = 0, No Iterations 0
diagonal:  Solving for f2.air1, Initial residual = 0, Final residual = 0, No Iterations 0
diagonal:  Solving for f3.air1, Initial residual = 0, Final residual = 0, No Iterations 0
diagonal:  Solving for f4.air1, Initial residual = 0, Final residual = 0, No Iterations 0
diagonal:  Solving for f5.air1, Initial residual = 0, Final residual = 0, No Iterations 0
diagonal:  Solving for f6.air1, Initial residual = 0, Final residual = 0, No Iterations 0
diagonal:  Solving for f7.air1, Initial residual = 0, Final residual = 0, No Iterations 0
diagonal:  Solving for f8.air1, Initial residual = 0, Final residual = 0, No Iterations 0
diagonal:  Solving for f9.air1, Initial residual = 0, Final residual = 0, No Iterations 0
diagonal:  Solving for f10.air1, Initial residual = 0, Final residual = 0, No Iterations 0
diagonal:  Solving for f11.air1, Initial residual = 0, Final residual = 0, No Iterations 0
diagonal:  Solving for f12.air1, Initial residual = 0, Final residual = 0, No Iterations 0
diagonal:  Solving for f13.air1, Initial residual = 0, Final residual = 0, No Iterations 0
diagonal:  Solving for f14.air1, Initial residual = 0, Final residual = 0, No Iterations 0
diagonal:  Solving for f15.air1, Initial residual = 0, Final residual = 0, No Iterations 0
diagonal:  Solving for f16.air1, Initial residual = 0, Final residual = 0, No Iterations 0
diagonal:  Solving for f17.air1, Initial residual = 0, Final residual = 0, No Iterations 0
diagonal:  Solving for f18.air1, Initial residual = 0, Final residual = 0, No Iterations 0
diagonal:  Solving for f19.air1, Initial residual = 0, Final residual = 0, No Iterations 0
diagonal:  Solving for f20.air2, Initial residual = 0, Final residual = 0, No Iterations 0
diagonal:  Solving for f21.air2, Initial residual = 0, Final residual = 0, No Iterations 0
diagonal:  Solving for f22.air2, Initial residual = 0, Final residual = 0, No Iterations 0
diagonal:  Solving for f23.air2, Initial residual = 0, Final residual = 0, No Iterations 0
diagonal:  Solving for f24.air2, Initial residual = 0, Final residual = 0, No Iterations 0
diagonal:  Solving for f25.air3, Initial residual = 0, Final residual = 0, No Iterations 0
diagonal:  Solving for f26.air3, Initial residual = 0, Final residual = 0, No Iterations 0
diagonal:  Solving for f27.air3, Initial residual = 0, Final residual = 0, No Iterations 0
diagonal:  Solving for f28.air3, Initial residual = 0, Final residual = 0, No Iterations 0
bubbles sizeGroup phase fraction first, last = 2.06741e-12 0.0342593
air1 sizeGroups-sum volume fraction, min, max = 1 1 1
air1 Sauter mean diameter, min, max = 0.325047 0.325047 0.325047
air2 sizeGroups-sum volume fraction, min, max = 1 1 1
air2 Sauter mean diameter, min, max = 0.649121 0.649121 0.649121
air3 sizeGroups-sum volume fraction, min, max = 1.00379 1.00379 1.00379
air3 Sauter mean diameter, min, max = 1.15219 1.15219 1.15219
Constructing momentum equations
diagonal:  Solving for p_rgh, Initial residual = 0, Final residual = 0, No Iterations 0
PIMPLE: Iteration 2
MULES: Solving for alpha.air1
MULES: Solving for alpha.air2
MULES: Solving for alpha.air3
MULES: Solving for alpha.water
air1 fraction, min, max = 3.04563e-05 3.04563e-05 3.04563e-05
air2 fraction, min, max = 0.00169375 0.00169375 0.00169375
air3 fraction, min, max = 0.0482773 0.0482773 0.0482773
water fraction, min, max = 0.949998 0.949998 0.949998
Phase-sum volume fraction, min, max = 1 1 1
populationBalance bubbles: Iteration 1
diagonal:  Solving for f0.air1, Initial residual = 0, Final residual = 0, No Iterations 0
diagonal:  Solving for f1.air1, Initial residual = 0, Final residual = 0, No Iterations 0
diagonal:  Solving for f2.air1, Initial residual = 0, Final residual = 0, No Iterations 0
diagonal:  Solving for f3.air1, Initial residual = 0, Final residual = 0, No Iterations 0
diagonal:  Solving for f4.air1, Initial residual = 0, Final residual = 0, No Iterations 0
diagonal:  Solving for f5.air1, Initial residual = 0, Final residual = 0, No Iterations 0
diagonal:  Solving for f6.air1, Initial residual = 0, Final residual = 0, No Iterations 0
diagonal:  Solving for f7.air1, Initial residual = 0, Final residual = 0, No Iterations 0
diagonal:  Solving for f8.air1, Initial residual = 0, Final residual = 0, No Iterations 0
diagonal:  Solving for f9.air1, Initial residual = 0, Final residual = 0, No Iterations 0
diagonal:  Solving for f10.air1, Initial residual = 0, Final residual = 0, No Iterations 0
diagonal:  Solving for f11.air1, Initial residual = 0, Final residual = 0, No Iterations 0
diagonal:  Solving for f12.air1, Initial residual = 0, Final residual = 0, No Iterations 0
diagonal:  Solving for f13.air1, Initial residual = 0, Final residual = 0, No Iterations 0
diagonal:  Solving for f14.air1, Initial residual = 0, Final residual = 0, No Iterations 0
diagonal:  Solving for f15.air1, Initial residual = 0, Final residual = 0, No Iterations 0
diagonal:  Solving for f16.air1, Initial residual = 0, Final residual = 0, No Iterations 0
diagonal:  Solving for f17.air1, Initial residual = 0, Final residual = 0, No Iterations 0
diagonal:  Solving for f18.air1, Initial residual = 0, Final residual = 0, No Iterations 0
diagonal:  Solving for f19.air1, Initial residual = 0, Final residual = 0, No Iterations 0
diagonal:  Solving for f20.air2, Initial residual = 0, Final residual = 0, No Iterations 0
diagonal:  Solving for f21.air2, Initial residual = 0, Final residual = 0, No Iterations 0
diagonal:  Solving for f22.air2, Initial residual = 0, Final residual = 0, No Iterations 0
diagonal:  Solving for f23.air2, Initial residual = 0, Final residual = 0, No Iterations 0
diagonal:  Solving for f24.air2, Initial residual = 0, Final residual = 0, No Iterations 0
diagonal:  Solving for f25.air3, Initial residual = 0, Final residual = 0, No Iterations 0
diagonal:  Solving for f26.air3, Initial residual = 0, Final residual = 0, No Iterations 0
diagonal:  Solving for f27.air3, Initial residual = 0, Final residual = 0, No Iterations 0
diagonal:  Solving for f28.air3, Initial residual = 0, Final residual = 0, No Iterations 0
bubbles sizeGroup phase fraction first, last = 2.06649e-12 0.0341988
air1 sizeGroups-sum volume fraction, min, max = 1 1 1
air1 Sauter mean diameter, min, max = 0.325047 0.325047 0.325047
air2 sizeGroups-sum volume fraction, min, max = 1 1 1
air2 Sauter mean diameter, min, max = 0.649125 0.649125 0.649125
air3 sizeGroups-sum volume fraction, min, max = 1.00123 1.00123 1.00123
air3 Sauter mean diameter, min, max = 1.15519 1.15519 1.15519
Constructing momentum equations
diagonal:  Solving for p_rgh, Initial residual = 0, Final residual = 0, No Iterations 0
ExecutionTime = 0.611545 s  ClockTime = 1 s

Courant Number mean: 0 max: 0
Time = 0.7s

PIMPLE: Iteration 1
MULES: Solving for alpha.air1
MULES: Solving for alpha.air2
MULES: Solving for alpha.air3
MULES: Solving for alpha.water
air1 fraction, min, max = 3.55469e-05 3.55469e-05 3.55469e-05
air2 fraction, min, max = 0.00197271 0.00197271 0.00197271
air3 fraction, min, max = 0.0479948 0.0479948 0.0479948
water fraction, min, max = 0.949998 0.949998 0.949998
Phase-sum volume fraction, min, max = 1 1 1
populationBalance bubbles: Iteration 1
diagonal:  Solving for f0.air1, Initial residual = 0, Final residual = 0, No Iterations 0
diagonal:  Solving for f1.air1, Initial residual = 0, Final residual = 0, No Iterations 0
diagonal:  Solving for f2.air1, Initial residual = 0, Final residual = 0, No Iterations 0
diagonal:  Solving for f3.air1, Initial residual = 0, Final residual = 0, No Iterations 0
diagonal:  Solving for f4.air1, Initial residual = 0, Final residual = 0, No Iterations 0
diagonal:  Solving for f5.air1, Initial residual = 0, Final residual = 0, No Iterations 0
diagonal:  Solving for f6.air1, Initial residual = 0, Final residual = 0, No Iterations 0
diagonal:  Solving for f7.air1, Initial residual = 0, Final residual = 0, No Iterations 0
diagonal:  Solving for f8.air1, Initial residual = 0, Final residual = 0, No Iterations 0
diagonal:  Solving for f9.air1, Initial residual = 0, Final residual = 0, No Iterations 0
diagonal:  Solving for f10.air1, Initial residual = 0, Final residual = 0, No Iterations 0
diagonal:  Solving for f11.air1, Initial residual = 0, Final residual = 0, No Iterations 0
diagonal:  Solving for f12.air1, Initial residual = 0, Final residual = 0, No Iterations 0
diagonal:  Solving for f13.air1, Initial residual = 0, Final residual = 0, No Iterations 0
diagonal:  Solving for f14.air1, Initial residual = 0, Final residual = 0, No Iterations 0
diagonal:  Solving for f15.air1, Initial residual = 0, Final residual = 0, No Iterations 0
diagonal:  Solving for f16.air1, Initial residual = 0, Final residual = 0, No Iterations 0
diagonal:  Solving for f17.air1, Initial residual = 0, Final residual = 0, No Iterations 0
diagonal:  Solving for f18.air1, Initial residual = 0, Final residual = 0, No Iterations 0
diagonal:  Solving for f19.air1, Initial residual = 0, Final residual = 0, No Iterations 0
diagonal:  Solving for f20.air2, Initial residual = 0, Final residual = 0, No Iterations 0
diagonal:  Solving for f21.air2, Initial residual = 0, Final residual = 0, No Iterations 0
diagonal:  Solving for f22.air2, Initial residual = 0, Final residual = 0, No Iterations 0
diagonal:  Solving for f23.air2, Initial residual = 0, Final residual = 0, No Iterations 0
diagonal:  Solving for f24.air2, Initial residual = 0, Final residual = 0, No Iterations 0
diagonal:  Solving for f25.air3, Initial residual = 0, Final residual = 0, No Iterations 0
diagonal:  Solving for f26.air3, Initial residual = 0, Final residual = 0, No Iterations 0
diagonal:  Solving for f27.air3, Initial residual = 0, Final residual = 0, No Iterations 0
diagonal:  Solving for f28.air3, Initial residual = 0, Final residual = 0, No Iterations 0
bubbles sizeGroup phase fraction first, last = 2.41201e-12 0.0321577
air1 sizeGroups-sum volume fraction, min, max = 1 1 1
air1 Sauter mean diameter, min, max = 0.325046 0.325046 0.325046
air2 sizeGroups-sum volume fraction, min, max = 1 1 1
air2 Sauter mean diameter, min, max = 0.648997 0.648997 0.648997
air3 sizeGroups-sum volume fraction, min, max = 1.00384 1.00384 1.00384
air3 Sauter mean diameter, min, max = 1.14105 1.14105 1.14105
Constructing momentum equations
diagonal:  Solving for p_rgh, Initial residual = 0, Final residual = 0, No Iterations 0
PIMPLE: Iteration 2
MULES: Solving for alpha.air1
MULES: Solving for alpha.air2
MULES: Solving for alpha.air3
MULES: Solving for alpha.water
air1 fraction, min, max = 3.5534e-05 3.5534e-05 3.5534e-05
air2 fraction, min, max = 0.00197042 0.00197042 0.00197042
air3 fraction, min, max = 0.0479956 0.0479956 0.0479956
water fraction, min, max = 0.949998 0.949998 0.949998
Phase-sum volume fraction, min, max = 1 1 1
populationBalance bubbles: Iteration 1
diagonal:  Solving for f0.air1, Initial residual = 0, Final residual = 0, No Iterations 0
diagonal:  Solving for f1.air1, Initial residual = 0, Final residual = 0, No Iterations 0
diagonal:  Solving for f2.air1, Initial residual = 0, Final residual = 0, No Iterations 0
diagonal:  Solving for f3.air1, Initial residual = 0, Final residual = 0, No Iterations 0
diagonal:  Solving for f4.air1, Initial residual = 0, Final residual = 0, No Iterations 0
diagonal:  Solving for f5.air1, Initial residual = 0, Final residual = 0, No Iterations 0
diagonal:  Solving for f6.air1, Initial residual = 0, Final residual = 0, No Iterations 0
diagonal:  Solving for f7.air1, Initial residual = 0, Final residual = 0, No Iterations 0
diagonal:  Solving for f8.air1, Initial residual = 0, Final residual = 0, No Iterations 0
diagonal:  Solving for f9.air1, Initial residual = 0, Final residual = 0, No Iterations 0
diagonal:  Solving for f10.air1, Initial residual = 0, Final residual = 0, No Iterations 0
diagonal:  Solving for f11.air1, Initial residual = 0, Final residual = 0, No Iterations 0
diagonal:  Solving for f12.air1, Initial residual = 0, Final residual = 0, No Iterations 0
diagonal:  Solving for f13.air1, Initial residual = 0, Final residual = 0, No Iterations 0
diagonal:  Solving for f14.air1, Initial residual = 0, Final residual = 0, No Iterations 0
diagonal:  Solving for f15.air1, Initial residual = 0, Final residual = 0, No Iterations 0
diagonal:  Solving for f16.air1, Initial residual = 0, Final residual = 0, No Iterations 0
diagonal:  Solving for f17.air1, Initial residual = 0, Final residual = 0, No Iterations 0
diagonal:  Solving for f18.air1, Initial residual = 0, Final residual = 0, No Iterations 0
diagonal:  Solving for f19.air1, Initial residual = 0, Final residual = 0, No Iterations 0
diagonal:  Solving for f20.air2, Initial residual = 0, Final residual = 0, No Iterations 0
diagonal:  Solving for f21.air2, Initial residual = 0, Final residual = 0, No Iterations 0
diagonal:  Solving for f22.air2, Initial residual = 0, Final residual = 0, No Iterations 0
diagonal:  Solving for f23.air2, Initial residual = 0, Final residual = 0, No Iterations 0
diagonal:  Solving for f24.air2, Initial residual = 0, Final residual = 0, No Iterations 0
diagonal:  Solving for f25.air3, Initial residual = 0, Final residual = 0, No Iterations 0
diagonal:  Solving for f26.air3, Initial residual = 0, Final residual = 0, No Iterations 0
diagonal:  Solving for f27.air3, Initial residual = 0, Final residual = 0, No Iterations 0
diagonal:  Solving for f28.air3, Initial residual = 0, Final residual = 0, No Iterations 0
bubbles sizeGroup phase fraction first, last = 2.41113e-12 0.0321009
air1 sizeGroups-sum volume fraction, min, max = 1 1 1
air1 Sauter mean diameter, min, max = 0.325046 0.325046 0.325046
air2 sizeGroups-sum volume fraction, min, max = 1 1 1
air2 Sauter mean diameter, min, max = 0.649 0.649 0.649
air3 sizeGroups-sum volume fraction, min, max = 1.0014 1.0014 1.0014
air3 Sauter mean diameter, min, max = 1.14385 1.14385 1.14385
Constructing momentum equations
diagonal:  Solving for p_rgh, Initial residual = 0, Final residual = 0, No Iterations 0
ExecutionTime = 0.660603 s  ClockTime = 1 s

Courant Number mean: 0 max: 0
Time = 0.8s

PIMPLE: Iteration 1
MULES: Solving for alpha.air1
MULES: Solving for alpha.air2
MULES: Solving for alpha.air3
MULES: Solving for alpha.water
air1 fraction, min, max = 4.06242e-05 4.06242e-05 4.06242e-05
air2 fraction, min, max = 0.0022478 0.0022478 0.0022478
air3 fraction, min, max = 0.0477147 0.0477147 0.0477147
water fraction, min, max = 0.949998 0.949998 0.949998
Phase-sum volume fraction, min, max = 1 1 1
populationBalance bubbles: Iteration 1
diagonal:  Solving for f0.air1, Initial residual = 0, Final residual = 0, No Iterations 0
diagonal:  Solving for f1.air1, Initial residual = 0, Final residual = 0, No Iterations 0
diagonal:  Solving for f2.air1, Initial residual = 0, Final residual = 0, No Iterations 0
diagonal:  Solving for f3.air1, Initial residual = 0, Final residual = 0, No Iterations 0
diagonal:  Solving for f4.air1, Initial residual = 0, Final residual = 0, No Iterations 0
diagonal:  Solving for f5.air1, Initial residual = 0, Final residual = 0, No Iterations 0
diagonal:  Solving for f6.air1, Initial residual = 0, Final residual = 0, No Iterations 0
diagonal:  Solving for f7.air1, Initial residual = 0, Final residual = 0, No Iterations 0
diagonal:  Solving for f8.air1, Initial residual = 0, Final residual = 0, No Iterations 0
diagonal:  Solving for f9.air1, Initial residual = 0, Final residual = 0, No Iterations 0
diagonal:  Solving for f10.air1, Initial residual = 0, Final residual = 0, No Iterations 0
diagonal:  Solving for f11.air1, Initial residual = 0, Final residual = 0, No Iterations 0
diagonal:  Solving for f12.air1, Initial residual = 0, Final residual = 0, No Iterations 0
diagonal:  Solving for f13.air1, Initial residual = 0, Final residual = 0, No Iterations 0
diagonal:  Solving for f14.air1, Initial residual = 0, Final residual = 0, No Iterations 0
diagonal:  Solving for f15.air1, Initial residual = 0, Final residual = 0, No Iterations 0
diagonal:  Solving for f16.air1, Initial residual = 0, Final residual = 0, No Iterations 0
diagonal:  Solving for f17.air1, Initial residual = 0, Final residual = 0, No Iterations 0
diagonal:  Solving for f18.air1, Initial residual = 0, Final residual = 0, No Iterations 0
diagonal:  Solving for f19.air1, Initial residual = 0, Final residual = 0, No Iterations 0
diagonal:  Solving for f20.air2, Initial residual = 0, Final residual = 0, No Iterations 0
diagonal:  Solving for f21.air2, Initial residual = 0, Final residual = 0, No Iterations 0
diagonal:  Solving for f22.air2, Initial residual = 0, Final residual = 0, No Iterations 0
diagonal:  Solving for f23.air2, Initial residual = 0, Final residual = 0, No Iterations 0
diagonal:  Solving for f24.air2, Initial residual = 0, Final residual = 0, No Iterations 0
diagonal:  Solving for f25.air3, Initial residual = 0, Final residual = 0, No Iterations 0
diagonal:  Solving for f26.air3, Initial residual = 0, Final residual = 0, No Iterations 0
diagonal:  Solving for f27.air3, Initial residual = 0, Final residual = 0, No Iterations 0
diagonal:  Solving for f28.air3, Initial residual = 0, Final residual = 0, No Iterations 0
bubbles sizeGroup phase fraction first, last = 2.75665e-12 0.030185
air1 sizeGroups-sum volume fraction, min, max = 1 1 1
air1 Sauter mean diameter, min, max = 0.325045 0.325045 0.325045
air2 sizeGroups-sum volume fraction, min, max = 1 1 1
air2 Sauter mean diameter, min, max = 0.648872 0.648872 0.648872
air3 sizeGroups-sum volume fraction, min, max = 1.00389 1.00389 1.00389
air3 Sauter mean diameter, min, max = 1.13056 1.13056 1.13056
Constructing momentum equations
diagonal:  Solving for p_rgh, Initial residual = 0, Final residual = 0, No Iterations 0
PIMPLE: Iteration 2
MULES: Solving for alpha.air1
MULES: Solving for alpha.air2
MULES: Solving for alpha.air3
MULES: Solving for alpha.water
air1 fraction, min, max = 4.0612e-05 4.0612e-05 4.0612e-05
air2 fraction, min, max = 0.00224555 0.00224555 0.00224555
air3 fraction, min, max = 0.0477153 0.0477153 0.0477153
water fraction, min, max = 0.949998 0.949998 0.949998
Phase-sum volume fraction, min, max = 1 1 1
populationBalance bubbles: Iteration 1
diagonal:  Solving for f0.air1, Initial residual = 0, Final residual = 0, No Iterations 0
diagonal:  Solving for f1.air1, Initial residual = 0, Final residual = 0, No Iterations 0
diagonal:  Solving for f2.air1, Initial residual = 0, Final residual = 0, No Iterations 0
diagonal:  Solving for f3.air1, Initial residual = 0, Final residual = 0, No Iterations 0
diagonal:  Solving for f4.air1, Initial residual = 0, Final residual = 0, No Iterations 0
diagonal:  Solving for f5.air1, Initial residual = 0, Final residual = 0, No Iterations 0
diagonal:  Solving for f6.air1, Initial residual = 0, Final residual = 0, No Iterations 0
diagonal:  Solving for f7.air1, Initial residual = 0, Final residual = 0, No Iterations 0
diagonal:  Solving for f8.air1, Initial residual = 0, Final residual = 0, No Iterations 0
diagonal:  Solving for f9.air1, Initial residual = 0, Final residual = 0, No Iterations 0
diagonal:  Solving for f10.air1, Initial residual = 0, Final residual = 0, No Iterations 0
diagonal:  Solving for f11.air1, Initial residual = 0, Final residual = 0, No Iterations 0
diagonal:  Solving for f12.air1, Initial residual = 0, Final residual = 0, No Iterations 0
diagonal:  Solving for f13.air1, Initial residual = 0, Final residual = 0, No Iterations 0
diagonal:  Solving for f14.air1, Initial residual = 0, Final residual = 0, No Iterations 0
diagonal:  Solving for f15.air1, Initial residual = 0, Final residual = 0, No Iterations 0
diagonal:  Solving for f16.air1, Initial residual = 0, Final residual = 0, No Iterations 0
diagonal:  Solving for f17.air1, Initial residual = 0, Final residual = 0, No Iterations 0
diagonal:  Solving for f18.air1, Initial residual = 0, Final residual = 0, No Iterations 0
diagonal:  Solving for f19.air1, Initial residual = 0, Final residual = 0, No Iterations 0
diagonal:  Solving for f20.air2, Initial residual = 0, Final residual = 0, No Iterations 0
diagonal:  Solving for f21.air2, Initial residual = 0, Final residual = 0, No Iterations 0
diagonal:  Solving for f22.air2, Initial residual = 0, Final residual = 0, No Iterations 0
diagonal:  Solving for f23.air2, Initial residual = 0, Final residual = 0, No Iterations 0
diagonal:  Solving for f24.air2, Initial residual = 0, Final residual = 0, No Iterations 0
diagonal:  Solving for f25.air3, Initial residual = 0, Final residual = 0, No Iterations 0
diagonal:  Solving for f26.air3, Initial residual = 0, Final residual = 0, No Iterations 0
diagonal:  Solving for f27.air3, Initial residual = 0, Final residual = 0, No Iterations 0
diagonal:  Solving for f28.air3, Initial residual = 0, Final residual = 0, No Iterations 0
bubbles sizeGroup phase fraction first, last = 2.75583e-12 0.0301316
air1 sizeGroups-sum volume fraction, min, max = 1 1 1
air1 Sauter mean diameter, min, max = 0.325045 0.325045 0.325045
air2 sizeGroups-sum volume fraction, min, max = 1 1 1
air2 Sauter mean diameter, min, max = 0.648875 0.648875 0.648875
air3 sizeGroups-sum volume fraction, min, max = 1.00157 1.00157 1.00157
air3 Sauter mean diameter, min, max = 1.13317 1.13317 1.13317
Constructing momentum equations
diagonal:  Solving for p_rgh, Initial residual = 0, Final residual = 0, No Iterations 0
ExecutionTime = 0.721654 s  ClockTime = 1 s

Courant Number mean: 0 max: 0
Time = 0.9s

PIMPLE: Iteration 1
MULES: Solving for alpha.air1
MULES: Solving for alpha.air2
MULES: Solving for alpha.air3
MULES: Solving for alpha.water
air1 fraction, min, max = 4.57018e-05 4.57018e-05 4.57018e-05
air2 fraction, min, max = 0.00252137 0.00252137 0.00252137
air3 fraction, min, max = 0.047436 0.047436 0.047436
water fraction, min, max = 0.949998 0.949998 0.949998
Phase-sum volume fraction, min, max = 1 1 1
populationBalance bubbles: Iteration 1
diagonal:  Solving for f0.air1, Initial residual = 0, Final residual = 0, No Iterations 0
diagonal:  Solving for f1.air1, Initial residual = 0, Final residual = 0, No Iterations 0
diagonal:  Solving for f2.air1, Initial residual = 0, Final residual = 0, No Iterations 0
diagonal:  Solving for f3.air1, Initial residual = 0, Final residual = 0, No Iterations 0
diagonal:  Solving for f4.air1, Initial residual = 0, Final residual = 0, No Iterations 0
diagonal:  Solving for f5.air1, Initial residual = 0, Final residual = 0, No Iterations 0
diagonal:  Solving for f6.air1, Initial residual = 0, Final residual = 0, No Iterations 0
diagonal:  Solving for f7.air1, Initial residual = 0, Final residual = 0, No Iterations 0
diagonal:  Solving for f8.air1, Initial residual = 0, Final residual = 0, No Iterations 0
diagonal:  Solving for f9.air1, Initial residual = 0, Final residual = 0, No Iterations 0
diagonal:  Solving for f10.air1, Initial residual = 0, Final residual = 0, No Iterations 0
diagonal:  Solving for f11.air1, Initial residual = 0, Final residual = 0, No Iterations 0
diagonal:  Solving for f12.air1, Initial residual = 0, Final residual = 0, No Iterations 0
diagonal:  Solving for f13.air1, Initial residual = 0, Final residual = 0, No Iterations 0
diagonal:  Solving for f14.air1, Initial residual = 0, Final residual = 0, No Iterations 0
diagonal:  Solving for f15.air1, Initial residual = 0, Final residual = 0, No Iterations 0
diagonal:  Solving for f16.air1, Initial residual = 0, Final residual = 0, No Iterations 0
diagonal:  Solving for f17.air1, Initial residual = 0, Final residual = 0, No Iterations 0
diagonal:  Solving for f18.air1, Initial residual = 0, Final residual = 0, No Iterations 0
diagonal:  Solving for f19.air1, Initial residual = 0, Final residual = 0, No Iterations 0
diagonal:  Solving for f20.air2, Initial residual = 0, Final residual = 0, No Iterations 0
diagonal:  Solving for f21.air2, Initial residual = 0, Final residual = 0, No Iterations 0
diagonal:  Solving for f22.air2, Initial residual = 0, Final residual = 0, No Iterations 0
diagonal:  Solving for f23.air2, Initial residual = 0, Final residual = 0, No Iterations 0
diagonal:  Solving for f24.air2, Initial residual = 0, Final residual = 0, No Iterations 0
diagonal:  Solving for f25.air3, Initial residual = 0, Final residual = 0, No Iterations 0
diagonal:  Solving for f26.air3, Initial residual = 0, Final residual = 0, No Iterations 0
diagonal:  Solving for f27.air3, Initial residual = 0, Final residual = 0, No Iterations 0
diagonal:  Solving for f28.air3, Initial residual = 0, Final residual = 0, No Iterations 0
bubbles sizeGroup phase fraction first, last = 3.10136e-12 0.0283334
air1 sizeGroups-sum volume fraction, min, max = 1 1 1
air1 Sauter mean diameter, min, max = 0.325043 0.325043 0.325043
air2 sizeGroups-sum volume fraction, min, max = 1 1 1
air2 Sauter mean diameter, min, max = 0.648746 0.648746 0.648746
air3 sizeGroups-sum volume fraction, min, max = 1.00394 1.00394 1.00394
air3 Sauter mean diameter, min, max = 1.12065 1.12065 1.12065
Constructing momentum equations
diagonal:  Solving for p_rgh, Initial residual = 0, Final residual = 0, No Iterations 0
PIMPLE: Iteration 2
MULES: Solving for alpha.air1
MULES: Solving for alpha.air2
MULES: Solving for alpha.air3
MULES: Solving for alpha.water
air1 fraction, min, max = 4.56903e-05 4.56903e-05 4.56903e-05
air2 fraction, min, max = 0.00251917 0.00251917 0.00251917
air3 fraction, min, max = 0.0474366 0.0474366 0.0474366
water fraction, min, max = 0.949998 0.949998 0.949998
Phase-sum volume fraction, min, max = 1 1 1
populationBalance bubbles: Iteration 1
diagonal:  Solving for f0.air1, Initial residual = 0, Final residual = 0, No Iterations 0
diagonal:  Solving for f1.air1, Initial residual = 0, Final residual = 0, No Iterations 0
diagonal:  Solving for f2.air1, Initial residual = 0, Final residual = 0, No Iterations 0
diagonal:  Solving for f3.air1, Initial residual = 0, Final residual = 0, No Iterations 0
diagonal:  Solving for f4.air1, Initial residual = 0, Final residual = 0, No Iterations 0
diagonal:  Solving for f5.air1, Initial residual = 0, Final residual = 0, No Iterations 0
diagonal:  Solving for f6.air1, Initial residual = 0, Final residual = 0, No Iterations 0
diagonal:  Solving for f7.air1, Initial residual = 0, Final residual = 0, No Iterations 0
diagonal:  Solving for f8.air1, Initial residual = 0, Final residual = 0, No Iterations 0
diagonal:  Solving for f9.air1, Initial residual = 0, Final residual = 0, No Iterations 0
diagonal:  Solving for f10.air1, Initial residual = 0, Final residual = 0, No Iterations 0
diagonal:  Solving for f11.air1, Initial residual = 0, Final residual = 0, No Iterations 0
diagonal:  Solving for f12.air1, Initial residual = 0, Final residual = 0, No Iterations 0
diagonal:  Solving for f13.air1, Initial residual = 0, Final residual = 0, No Iterations 0
diagonal:  Solving for f14.air1, Initial residual = 0, Final residual = 0, No Iterations 0
diagonal:  Solving for f15.air1, Initial residual = 0, Final residual = 0, No Iterations 0
diagonal:  Solving for f16.air1, Initial residual = 0, Final residual = 0, No Iterations 0
diagonal:  Solving for f17.air1, Initial residual = 0, Final residual = 0, No Iterations 0
diagonal:  Solving for f18.air1, Initial residual = 0, Final residual = 0, No Iterations 0
diagonal:  Solving for f19.air1, Initial residual = 0, Final residual = 0, No Iterations 0
diagonal:  Solving for f20.air2, Initial residual = 0, Final residual = 0, No Iterations 0
diagonal:  Solving for f21.air2, Initial residual = 0, Final residual = 0, No Iterations 0
diagonal:  Solving for f22.air2, Initial residual = 0, Final residual = 0, No Iterations 0
diagonal:  Solving for f23.air2, Initial residual = 0, Final residual = 0, No Iterations 0
diagonal:  Solving for f24.air2, Initial residual = 0, Final residual = 0, No Iterations 0
diagonal:  Solving for f25.air3, Initial residual = 0, Final residual = 0, No Iterations 0
diagonal:  Solving for f26.air3, Initial residual = 0, Final residual = 0, No Iterations 0
diagonal:  Solving for f27.air3, Initial residual = 0, Final residual = 0, No Iterations 0
diagonal:  Solving for f28.air3, Initial residual = 0, Final residual = 0, No Iterations 0
bubbles sizeGroup phase fraction first, last = 3.10058e-12 0.0282832
air1 sizeGroups-sum volume fraction, min, max = 1 1 1
air1 Sauter mean diameter, min, max = 0.325043 0.325043 0.325043
air2 sizeGroups-sum volume fraction, min, max = 1 1 1
air2 Sauter mean diameter, min, max = 0.648749 0.648749 0.648749
air3 sizeGroups-sum volume fraction, min, max = 1.00173 1.00173 1.00173
air3 Sauter mean diameter, min, max = 1.1231 1.1231 1.1231
Constructing momentum equations
diagonal:  Solving for p_rgh, Initial residual = 0, Final residual = 0, No Iterations 0
ExecutionTime = 0.761884 s  ClockTime = 1 s

Courant Number mean: 0 max: 0
Time = 1s

PIMPLE: Iteration 1
MULES: Solving for alpha.air1
MULES: Solving for alpha.air2
MULES: Solving for alpha.air3
MULES: Solving for alpha.water
air1 fraction, min, max = 5.07798e-05 5.07798e-05 5.07798e-05
air2 fraction, min, max = 0.00279341 0.00279341 0.00279341
air3 fraction, min, max = 0.0471589 0.0471589 0.0471589
water fraction, min, max = 0.949998 0.949998 0.949998
Phase-sum volume fraction, min, max = 1 1 1
populationBalance bubbles: Iteration 1
diagonal:  Solving for f0.air1, Initial residual = 0, Final residual = 0, No Iterations 0
diagonal:  Solving for f1.air1, Initial residual = 0, Final residual = 0, No Iterations 0
diagonal:  Solving for f2.air1, Initial residual = 0, Final residual = 0, No Iterations 0
diagonal:  Solving for f3.air1, Initial residual = 0, Final residual = 0, No Iterations 0
diagonal:  Solving for f4.air1, Initial residual = 0, Final residual = 0, No Iterations 0
diagonal:  Solving for f5.air1, Initial residual = 0, Final residual = 0, No Iterations 0
diagonal:  Solving for f6.air1, Initial residual = 0, Final residual = 0, No Iterations 0
diagonal:  Solving for f7.air1, Initial residual = 0, Final residual = 0, No Iterations 0
diagonal:  Solving for f8.air1, Initial residual = 0, Final residual = 0, No Iterations 0
diagonal:  Solving for f9.air1, Initial residual = 0, Final residual = 0, No Iterations 0
diagonal:  Solving for f10.air1, Initial residual = 0, Final residual = 0, No Iterations 0
diagonal:  Solving for f11.air1, Initial residual = 0, Final residual = 0, No Iterations 0
diagonal:  Solving for f12.air1, Initial residual = 0, Final residual = 0, No Iterations 0
diagonal:  Solving for f13.air1, Initial residual = 0, Final residual = 0, No Iterations 0
diagonal:  Solving for f14.air1, Initial residual = 0, Final residual = 0, No Iterations 0
diagonal:  Solving for f15.air1, Initial residual = 0, Final residual = 0, No Iterations 0
diagonal:  Solving for f16.air1, Initial residual = 0, Final residual = 0, No Iterations 0
diagonal:  Solving for f17.air1, Initial residual = 0, Final residual = 0, No Iterations 0
diagonal:  Solving for f18.air1, Initial residual = 0, Final residual = 0, No Iterations 0
diagonal:  Solving for f19.air1, Initial residual = 0, Final residual = 0, No Iterations 0
diagonal:  Solving for f20.air2, Initial residual = 0, Final residual = 0, No Iterations 0
diagonal:  Solving for f21.air2, Initial residual = 0, Final residual = 0, No Iterations 0
diagonal:  Solving for f22.air2, Initial residual = 0, Final residual = 0, No Iterations 0
diagonal:  Solving for f23.air2, Initial residual = 0, Final residual = 0, No Iterations 0
diagonal:  Solving for f24.air2, Initial residual = 0, Final residual = 0, No Iterations 0
diagonal:  Solving for f25.air3, Initial residual = 0, Final residual = 0, No Iterations 0
diagonal:  Solving for f26.air3, Initial residual = 0, Final residual = 0, No Iterations 0
diagonal:  Solving for f27.air3, Initial residual = 0, Final residual = 0, No Iterations 0
diagonal:  Solving for f28.air3, Initial residual = 0, Final residual = 0, No Iterations 0
bubbles sizeGroup phase fraction first, last = 3.44611e-12 0.0265952
air1 sizeGroups-sum volume fraction, min, max = 1 1 1
air1 Sauter mean diameter, min, max = 0.325042 0.325042 0.325042
air2 sizeGroups-sum volume fraction, min, max = 1 1 1
air2 Sauter mean diameter, min, max = 0.648621 0.648621 0.648621
air3 sizeGroups-sum volume fraction, min, max = 1.00398 1.00398 1.00398
air3 Sauter mean diameter, min, max = 1.1113 1.1113 1.1113
Constructing momentum equations
diagonal:  Solving for p_rgh, Initial residual = 0, Final residual = 0, No Iterations 0
PIMPLE: Iteration 2
MULES: Solving for alpha.air1
MULES: Solving for alpha.air2
MULES: Solving for alpha.air3
MULES: Solving for alpha.water
air1 fraction, min, max = 5.07688e-05 5.07688e-05 5.07688e-05
air2 fraction, min, max = 0.00279125 0.00279125 0.00279125
air3 fraction, min, max = 0.0471595 0.0471595 0.0471595
water fraction, min, max = 0.949998 0.949998 0.949998
Phase-sum volume fraction, min, max = 1 1 1
populationBalance bubbles: Iteration 1
diagonal:  Solving for f0.air1, Initial residual = 0, Final residual = 0, No Iterations 0
diagonal:  Solving for f1.air1, Initial residual = 0, Final residual = 0, No Iterations 0
diagonal:  Solving for f2.air1, Initial residual = 0, Final residual = 0, No Iterations 0
diagonal:  Solving for f3.air1, Initial residual = 0, Final residual = 0, No Iterations 0
diagonal:  Solving for f4.air1, Initial residual = 0, Final residual = 0, No Iterations 0
diagonal:  Solving for f5.air1, Initial residual = 0, Final residual = 0, No Iterations 0
diagonal:  Solving for f6.air1, Initial residual = 0, Final residual = 0, No Iterations 0
diagonal:  Solving for f7.air1, Initial residual = 0, Final residual = 0, No Iterations 0
diagonal:  Solving for f8.air1, Initial residual = 0, Final residual = 0, No Iterations 0
diagonal:  Solving for f9.air1, Initial residual = 0, Final residual = 0, No Iterations 0
diagonal:  Solving for f10.air1, Initial residual = 0, Final residual = 0, No Iterations 0
diagonal:  Solving for f11.air1, Initial residual = 0, Final residual = 0, No Iterations 0
diagonal:  Solving for f12.air1, Initial residual = 0, Final residual = 0, No Iterations 0
diagonal:  Solving for f13.air1, Initial residual = 0, Final residual = 0, No Iterations 0
diagonal:  Solving for f14.air1, Initial residual = 0, Final residual = 0, No Iterations 0
diagonal:  Solving for f15.air1, Initial residual = 0, Final residual = 0, No Iterations 0
diagonal:  Solving for f16.air1, Initial residual = 0, Final residual = 0, No Iterations 0
diagonal:  Solving for f17.air1, Initial residual = 0, Final residual = 0, No Iterations 0
diagonal:  Solving for f18.air1, Initial residual = 0, Final residual = 0, No Iterations 0
diagonal:  Solving for f19.air1, Initial residual = 0, Final residual = 0, No Iterations 0
diagonal:  Solving for f20.air2, Initial residual = 0, Final residual = 0, No Iterations 0
diagonal:  Solving for f21.air2, Initial residual = 0, Final residual = 0, No Iterations 0
diagonal:  Solving for f22.air2, Initial residual = 0, Final residual = 0, No Iterations 0
diagonal:  Solving for f23.air2, Initial residual = 0, Final residual = 0, No Iterations 0
diagonal:  Solving for f24.air2, Initial residual = 0, Final residual = 0, No Iterations 0
diagonal:  Solving for f25.air3, Initial residual = 0, Final residual = 0, No Iterations 0
diagonal:  Solving for f26.air3, Initial residual = 0, Final residual = 0, No Iterations 0
diagonal:  Solving for f27.air3, Initial residual = 0, Final residual = 0, No Iterations 0
diagonal:  Solving for f28.air3, Initial residual = 0, Final residual = 0, No Iterations 0
bubbles sizeGroup phase fraction first, last = 3.44537e-12 0.0265481
air1 sizeGroups-sum volume fraction, min, max = 1 1 1
air1 Sauter mean diameter, min, max = 0.325042 0.325042 0.325042
air2 sizeGroups-sum volume fraction, min, max = 1 1 1
air2 Sauter mean diameter, min, max = 0.648623 0.648623 0.648623
air3 sizeGroups-sum volume fraction, min, max = 1.00188 1.00188 1.00188
air3 Sauter mean diameter, min, max = 1.11359 1.11359 1.11359
Constructing momentum equations
diagonal:  Solving for p_rgh, Initial residual = 0, Final residual = 0, No Iterations 0
ExecutionTime = 0.801356 s  ClockTime = 1 s

Courant Number mean: 0 max: 0
Time = 1.1s

PIMPLE: Iteration 1
MULES: Solving for alpha.air1
MULES: Solving for alpha.air2
MULES: Solving for alpha.air3
MULES: Solving for alpha.water
air1 fraction, min, max = 5.58579e-05 5.58579e-05 5.58579e-05
air2 fraction, min, max = 0.00306394 0.00306394 0.00306394
air3 fraction, min, max = 0.0468833 0.0468833 0.0468833
water fraction, min, max = 0.949998 0.949998 0.949998
Phase-sum volume fraction, min, max = 1 1 1
populationBalance bubbles: Iteration 1
diagonal:  Solving for f0.air1, Initial residual = 0, Final residual = 0, No Iterations 0
diagonal:  Solving for f1.air1, Initial residual = 0, Final residual = 0, No Iterations 0
diagonal:  Solving for f2.air1, Initial residual = 0, Final residual = 0, No Iterations 0
diagonal:  Solving for f3.air1, Initial residual = 0, Final residual = 0, No Iterations 0
diagonal:  Solving for f4.air1, Initial residual = 0, Final residual = 0, No Iterations 0
diagonal:  Solving for f5.air1, Initial residual = 0, Final residual = 0, No Iterations 0
diagonal:  Solving for f6.air1, Initial residual = 0, Final residual = 0, No Iterations 0
diagonal:  Solving for f7.air1, Initial residual = 0, Final residual = 0, No Iterations 0
diagonal:  Solving for f8.air1, Initial residual = 0, Final residual = 0, No Iterations 0
diagonal:  Solving for f9.air1, Initial residual = 0, Final residual = 0, No Iterations 0
diagonal:  Solving for f10.air1, Initial residual = 0, Final residual = 0, No Iterations 0
diagonal:  Solving for f11.air1, Initial residual = 0, Final residual = 0, No Iterations 0
diagonal:  Solving for f12.air1, Initial residual = 0, Final residual = 0, No Iterations 0
diagonal:  Solving for f13.air1, Initial residual = 0, Final residual = 0, No Iterations 0
diagonal:  Solving for f14.air1, Initial residual = 0, Final residual = 0, No Iterations 0
diagonal:  Solving for f15.air1, Initial residual = 0, Final residual = 0, No Iterations 0
diagonal:  Solving for f16.air1, Initial residual = 0, Final residual = 0, No Iterations 0
diagonal:  Solving for f17.air1, Initial residual = 0, Final residual = 0, No Iterations 0
diagonal:  Solving for f18.air1, Initial residual = 0, Final residual = 0, No Iterations 0
diagonal:  Solving for f19.air1, Initial residual = 0, Final residual = 0, No Iterations 0
diagonal:  Solving for f20.air2, Initial residual = 0, Final residual = 0, No Iterations 0
diagonal:  Solving for f21.air2, Initial residual = 0, Final residual = 0, No Iterations 0
diagonal:  Solving for f22.air2, Initial residual = 0, Final residual = 0, No Iterations 0
diagonal:  Solving for f23.air2, Initial residual = 0, Final residual = 0, No Iterations 0
diagonal:  Solving for f24.air2, Initial residual = 0, Final residual = 0, No Iterations 0
[...]
diagonal:  Solving for f19.air1, Initial residual = 0, Final residual = 0, No Iterations 0
diagonal:  Solving for f20.air2, Initial residual = 0, Final residual = 0, No Iterations 0
diagonal:  Solving for f21.air2, Initial residual = 0, Final residual = 0, No Iterations 0
diagonal:  Solving for f22.air2, Initial residual = 0, Final residual = 0, No Iterations 0
diagonal:  Solving for f23.air2, Initial residual = 0, Final residual = 0, No Iterations 0
diagonal:  Solving for f24.air2, Initial residual = 0, Final residual = 0, No Iterations 0
diagonal:  Solving for f25.air3, Initial residual = 0, Final residual = 0, No Iterations 0
diagonal:  Solving for f26.air3, Initial residual = 0, Final residual = 0, No Iterations 0
diagonal:  Solving for f27.air3, Initial residual = 0, Final residual = 0, No Iterations 0
diagonal:  Solving for f28.air3, Initial residual = 0, Final residual = 0, No Iterations 0
bubbles sizeGroup phase fraction first, last = 3.38465e-11 0.000101134
air1 sizeGroups-sum volume fraction, min, max = 1 1 1
air1 Sauter mean diameter, min, max = 0.324928 0.324928 0.324928
air2 sizeGroups-sum volume fraction, min, max = 1 1 1
air2 Sauter mean diameter, min, max = 0.636877 0.636877 0.636877
air3 sizeGroups-sum volume fraction, min, max = 1.0074 1.0074 1.0074
air3 Sauter mean diameter, min, max = 0.886756 0.886756 0.886756
Constructing momentum equations
diagonal:  Solving for p_rgh, Initial residual = 0, Final residual = 0, No Iterations 0
PIMPLE: Iteration 2
MULES: Solving for alpha.air1
MULES: Solving for alpha.air2
MULES: Solving for alpha.air3
MULES: Solving for alpha.water
air1 fraction, min, max = 0.000496639 0.000496639 0.000496639
air2 fraction, min, max = 0.0214178 0.0214178 0.0214178
air3 fraction, min, max = 0.028087 0.028087 0.028087
water fraction, min, max = 0.949999 0.949999 0.949999
Phase-sum volume fraction, min, max = 1 1 1
populationBalance bubbles: Iteration 1
diagonal:  Solving for f0.air1, Initial residual = 0, Final residual = 0, No Iterations 0
diagonal:  Solving for f1.air1, Initial residual = 0, Final residual = 0, No Iterations 0
diagonal:  Solving for f2.air1, Initial residual = 0, Final residual = 0, No Iterations 0
diagonal:  Solving for f3.air1, Initial residual = 0, Final residual = 0, No Iterations 0
diagonal:  Solving for f4.air1, Initial residual = 0, Final residual = 0, No Iterations 0
diagonal:  Solving for f5.air1, Initial residual = 0, Final residual = 0, No Iterations 0
diagonal:  Solving for f6.air1, Initial residual = 0, Final residual = 0, No Iterations 0
diagonal:  Solving for f7.air1, Initial residual = 0, Final residual = 0, No Iterations 0
diagonal:  Solving for f8.air1, Initial residual = 0, Final residual = 0, No Iterations 0
diagonal:  Solving for f9.air1, Initial residual = 0, Final residual = 0, No Iterations 0
diagonal:  Solving for f10.air1, Initial residual = 0, Final residual = 0, No Iterations 0
diagonal:  Solving for f11.air1, Initial residual = 0, Final residual = 0, No Iterations 0
diagonal:  Solving for f12.air1, Initial residual = 0, Final residual = 0, No Iterations 0
diagonal:  Solving for f13.air1, Initial residual = 0, Final residual = 0, No Iterations 0
diagonal:  Solving for f14.air1, Initial residual = 0, Final residual = 0, No Iterations 0
diagonal:  Solving for f15.air1, Initial residual = 0, Final residual = 0, No Iterations 0
diagonal:  Solving for f16.air1, Initial residual = 0, Final residual = 0, No Iterations 0
diagonal:  Solving for f17.air1, Initial residual = 0, Final residual = 0, No Iterations 0
diagonal:  Solving for f18.air1, Initial residual = 0, Final residual = 0, No Iterations 0
diagonal:  Solving for f19.air1, Initial residual = 0, Final residual = 0, No Iterations 0
diagonal:  Solving for f20.air2, Initial residual = 0, Final residual = 0, No Iterations 0
diagonal:  Solving for f21.air2, Initial residual = 0, Final residual = 0, No Iterations 0
diagonal:  Solving for f22.air2, Initial residual = 0, Final residual = 0, No Iterations 0
diagonal:  Solving for f23.air2, Initial residual = 0, Final residual = 0, No Iterations 0
diagonal:  Solving for f24.air2, Initial residual = 0, Final residual = 0, No Iterations 0
diagonal:  Solving for f25.air3, Initial residual = 0, Final residual = 0, No Iterations 0
diagonal:  Solving for f26.air3, Initial residual = 0, Final residual = 0, No Iterations 0
diagonal:  Solving for f27.air3, Initial residual = 0, Final residual = 0, No Iterations 0
diagonal:  Solving for f28.air3, Initial residual = 0, Final residual = 0, No Iterations 0
bubbles sizeGroup phase fraction first, last = 3.38465e-11 0.000100953
air1 sizeGroups-sum volume fraction, min, max = 1 1 1
air1 Sauter mean diameter, min, max = 0.324928 0.324928 0.324928
air2 sizeGroups-sum volume fraction, min, max = 1 1 1
air2 Sauter mean diameter, min, max = 0.636878 0.636878 0.636878
air3 sizeGroups-sum volume fraction, min, max = 1.0073 1.0073 1.0073
air3 Sauter mean diameter, min, max = 0.886838 0.886838 0.886838
Constructing momentum equations
diagonal:  Solving for p_rgh, Initial residual = 0, Final residual = 0, No Iterations 0
ExecutionTime = 4.84346 s  ClockTime = 5 s

Courant Number mean: 0 max: 0
Time = 9.9s

PIMPLE: Iteration 1
MULES: Solving for alpha.air1
MULES: Solving for alpha.air2
MULES: Solving for alpha.air3
MULES: Solving for alpha.water
air1 fraction, min, max = 0.000501687 0.000501687 0.000501687
air2 fraction, min, max = 0.0215786 0.0215786 0.0215786
air3 fraction, min, max = 0.0279221 0.0279221 0.0279221
water fraction, min, max = 0.949999 0.949999 0.949999
Phase-sum volume fraction, min, max = 1 1 1
populationBalance bubbles: Iteration 1
diagonal:  Solving for f0.air1, Initial residual = 0, Final residual = 0, No Iterations 0
diagonal:  Solving for f1.air1, Initial residual = 0, Final residual = 0, No Iterations 0
diagonal:  Solving for f2.air1, Initial residual = 0, Final residual = 0, No Iterations 0
diagonal:  Solving for f3.air1, Initial residual = 0, Final residual = 0, No Iterations 0
diagonal:  Solving for f4.air1, Initial residual = 0, Final residual = 0, No Iterations 0
diagonal:  Solving for f5.air1, Initial residual = 0, Final residual = 0, No Iterations 0
diagonal:  Solving for f6.air1, Initial residual = 0, Final residual = 0, No Iterations 0
diagonal:  Solving for f7.air1, Initial residual = 0, Final residual = 0, No Iterations 0
diagonal:  Solving for f8.air1, Initial residual = 0, Final residual = 0, No Iterations 0
diagonal:  Solving for f9.air1, Initial residual = 0, Final residual = 0, No Iterations 0
diagonal:  Solving for f10.air1, Initial residual = 0, Final residual = 0, No Iterations 0
diagonal:  Solving for f11.air1, Initial residual = 0, Final residual = 0, No Iterations 0
diagonal:  Solving for f12.air1, Initial residual = 0, Final residual = 0, No Iterations 0
diagonal:  Solving for f13.air1, Initial residual = 0, Final residual = 0, No Iterations 0
diagonal:  Solving for f14.air1, Initial residual = 0, Final residual = 0, No Iterations 0
diagonal:  Solving for f15.air1, Initial residual = 0, Final residual = 0, No Iterations 0
diagonal:  Solving for f16.air1, Initial residual = 0, Final residual = 0, No Iterations 0
diagonal:  Solving for f17.air1, Initial residual = 0, Final residual = 0, No Iterations 0
diagonal:  Solving for f18.air1, Initial residual = 0, Final residual = 0, No Iterations 0
diagonal:  Solving for f19.air1, Initial residual = 0, Final residual = 0, No Iterations 0
diagonal:  Solving for f20.air2, Initial residual = 0, Final residual = 0, No Iterations 0
diagonal:  Solving for f21.air2, Initial residual = 0, Final residual = 0, No Iterations 0
diagonal:  Solving for f22.air2, Initial residual = 0, Final residual = 0, No Iterations 0
diagonal:  Solving for f23.air2, Initial residual = 0, Final residual = 0, No Iterations 0
diagonal:  Solving for f24.air2, Initial residual = 0, Final residual = 0, No Iterations 0
diagonal:  Solving for f25.air3, Initial residual = 0, Final residual = 0, No Iterations 0
diagonal:  Solving for f26.air3, Initial residual = 0, Final residual = 0, No Iterations 0
diagonal:  Solving for f27.air3, Initial residual = 0, Final residual = 0, No Iterations 0
diagonal:  Solving for f28.air3, Initial residual = 0, Final residual = 0, No Iterations 0
bubbles sizeGroup phase fraction first, last = 3.41921e-11 9.49289e-05
air1 sizeGroups-sum volume fraction, min, max = 1 1 1
air1 Sauter mean diameter, min, max = 0.324927 0.324927 0.324927
air2 sizeGroups-sum volume fraction, min, max = 1 1 1
air2 Sauter mean diameter, min, max = 0.63674 0.63674 0.63674
air3 sizeGroups-sum volume fraction, min, max = 1.00744 1.00744 1.00744
air3 Sauter mean diameter, min, max = 0.886029 0.886029 0.886029
Constructing momentum equations
diagonal:  Solving for p_rgh, Initial residual = 0, Final residual = 0, No Iterations 0
PIMPLE: Iteration 2
MULES: Solving for alpha.air1
MULES: Solving for alpha.air2
MULES: Solving for alpha.air3
MULES: Solving for alpha.water
air1 fraction, min, max = 0.000501686 0.000501686 0.000501686
air2 fraction, min, max = 0.0215776 0.0215776 0.0215776
air3 fraction, min, max = 0.0279221 0.0279221 0.0279221
water fraction, min, max = 0.949999 0.949999 0.949999
Phase-sum volume fraction, min, max = 1 1 1
populationBalance bubbles: Iteration 1
diagonal:  Solving for f0.air1, Initial residual = 0, Final residual = 0, No Iterations 0
diagonal:  Solving for f1.air1, Initial residual = 0, Final residual = 0, No Iterations 0
diagonal:  Solving for f2.air1, Initial residual = 0, Final residual = 0, No Iterations 0
diagonal:  Solving for f3.air1, Initial residual = 0, Final residual = 0, No Iterations 0
diagonal:  Solving for f4.air1, Initial residual = 0, Final residual = 0, No Iterations 0
diagonal:  Solving for f5.air1, Initial residual = 0, Final residual = 0, No Iterations 0
diagonal:  Solving for f6.air1, Initial residual = 0, Final residual = 0, No Iterations 0
diagonal:  Solving for f7.air1, Initial residual = 0, Final residual = 0, No Iterations 0
diagonal:  Solving for f8.air1, Initial residual = 0, Final residual = 0, No Iterations 0
diagonal:  Solving for f9.air1, Initial residual = 0, Final residual = 0, No Iterations 0
diagonal:  Solving for f10.air1, Initial residual = 0, Final residual = 0, No Iterations 0
diagonal:  Solving for f11.air1, Initial residual = 0, Final residual = 0, No Iterations 0
diagonal:  Solving for f12.air1, Initial residual = 0, Final residual = 0, No Iterations 0
diagonal:  Solving for f13.air1, Initial residual = 0, Final residual = 0, No Iterations 0
diagonal:  Solving for f14.air1, Initial residual = 0, Final residual = 0, No Iterations 0
diagonal:  Solving for f15.air1, Initial residual = 0, Final residual = 0, No Iterations 0
diagonal:  Solving for f16.air1, Initial residual = 0, Final residual = 0, No Iterations 0
diagonal:  Solving for f17.air1, Initial residual = 0, Final residual = 0, No Iterations 0
diagonal:  Solving for f18.air1, Initial residual = 0, Final residual = 0, No Iterations 0
diagonal:  Solving for f19.air1, Initial residual = 0, Final residual = 0, No Iterations 0
diagonal:  Solving for f20.air2, Initial residual = 0, Final residual = 0, No Iterations 0
diagonal:  Solving for f21.air2, Initial residual = 0, Final residual = 0, No Iterations 0
diagonal:  Solving for f22.air2, Initial residual = 0, Final residual = 0, No Iterations 0
diagonal:  Solving for f23.air2, Initial residual = 0, Final residual = 0, No Iterations 0
diagonal:  Solving for f24.air2, Initial residual = 0, Final residual = 0, No Iterations 0
diagonal:  Solving for f25.air3, Initial residual = 0, Final residual = 0, No Iterations 0
diagonal:  Solving for f26.air3, Initial residual = 0, Final residual = 0, No Iterations 0
diagonal:  Solving for f27.air3, Initial residual = 0, Final residual = 0, No Iterations 0
diagonal:  Solving for f28.air3, Initial residual = 0, Final residual = 0, No Iterations 0
bubbles sizeGroup phase fraction first, last = 3.41921e-11 9.47584e-05
air1 sizeGroups-sum volume fraction, min, max = 1 1 1
air1 Sauter mean diameter, min, max = 0.324927 0.324927 0.324927
air2 sizeGroups-sum volume fraction, min, max = 1 1 1
air2 Sauter mean diameter, min, max = 0.636742 0.636742 0.636742
air3 sizeGroups-sum volume fraction, min, max = 1.00734 1.00734 1.00734
air3 Sauter mean diameter, min, max = 0.886109 0.886109 0.886109
Constructing momentum equations
diagonal:  Solving for p_rgh, Initial residual = 0, Final residual = 0, No Iterations 0
ExecutionTime = 4.88097 s  ClockTime = 5 s

Courant Number mean: 0 max: 0
Time = 10s

PIMPLE: Iteration 1
MULES: Solving for alpha.air1
MULES: Solving for alpha.air2
MULES: Solving for alpha.air3
MULES: Solving for alpha.water
air1 fraction, min, max = 0.000506734 0.000506734 0.000506734
air2 fraction, min, max = 0.0217374 0.0217374 0.0217374
air3 fraction, min, max = 0.0277582 0.0277582 0.0277582
water fraction, min, max = 0.949999 0.949999 0.949999
Phase-sum volume fraction, min, max = 1 1 1
populationBalance bubbles: Iteration 1
diagonal:  Solving for f0.air1, Initial residual = 0, Final residual = 0, No Iterations 0
diagonal:  Solving for f1.air1, Initial residual = 0, Final residual = 0, No Iterations 0
diagonal:  Solving for f2.air1, Initial residual = 0, Final residual = 0, No Iterations 0
diagonal:  Solving for f3.air1, Initial residual = 0, Final residual = 0, No Iterations 0
diagonal:  Solving for f4.air1, Initial residual = 0, Final residual = 0, No Iterations 0
diagonal:  Solving for f5.air1, Initial residual = 0, Final residual = 0, No Iterations 0
diagonal:  Solving for f6.air1, Initial residual = 0, Final residual = 0, No Iterations 0
diagonal:  Solving for f7.air1, Initial residual = 0, Final residual = 0, No Iterations 0
diagonal:  Solving for f8.air1, Initial residual = 0, Final residual = 0, No Iterations 0
diagonal:  Solving for f9.air1, Initial residual = 0, Final residual = 0, No Iterations 0
diagonal:  Solving for f10.air1, Initial residual = 0, Final residual = 0, No Iterations 0
diagonal:  Solving for f11.air1, Initial residual = 0, Final residual = 0, No Iterations 0
diagonal:  Solving for f12.air1, Initial residual = 0, Final residual = 0, No Iterations 0
diagonal:  Solving for f13.air1, Initial residual = 0, Final residual = 0, No Iterations 0
diagonal:  Solving for f14.air1, Initial residual = 0, Final residual = 0, No Iterations 0
diagonal:  Solving for f15.air1, Initial residual = 0, Final residual = 0, No Iterations 0
diagonal:  Solving for f16.air1, Initial residual = 0, Final residual = 0, No Iterations 0
diagonal:  Solving for f17.air1, Initial residual = 0, Final residual = 0, No Iterations 0
diagonal:  Solving for f18.air1, Initial residual = 0, Final residual = 0, No Iterations 0
diagonal:  Solving for f19.air1, Initial residual = 0, Final residual = 0, No Iterations 0
diagonal:  Solving for f20.air2, Initial residual = 0, Final residual = 0, No Iterations 0
diagonal:  Solving for f21.air2, Initial residual = 0, Final residual = 0, No Iterations 0
diagonal:  Solving for f22.air2, Initial residual = 0, Final residual = 0, No Iterations 0
diagonal:  Solving for f23.air2, Initial residual = 0, Final residual = 0, No Iterations 0
diagonal:  Solving for f24.air2, Initial residual = 0, Final residual = 0, No Iterations 0
diagonal:  Solving for f25.air3, Initial residual = 0, Final residual = 0, No Iterations 0
diagonal:  Solving for f26.air3, Initial residual = 0, Final residual = 0, No Iterations 0
diagonal:  Solving for f27.air3, Initial residual = 0, Final residual = 0, No Iterations 0
diagonal:  Solving for f28.air3, Initial residual = 0, Final residual = 0, No Iterations 0
bubbles sizeGroup phase fraction first, last = 3.45378e-11 8.91042e-05
air1 sizeGroups-sum volume fraction, min, max = 1 1 1
air1 Sauter mean diameter, min, max = 0.324925 0.324925 0.324925
air2 sizeGroups-sum volume fraction, min, max = 1 1 1
air2 Sauter mean diameter, min, max = 0.636603 0.636603 0.636603
air3 sizeGroups-sum volume fraction, min, max = 1.00749 1.00749 1.00749
air3 Sauter mean diameter, min, max = 0.885313 0.885313 0.885313
Constructing momentum equations
diagonal:  Solving for p_rgh, Initial residual = 0, Final residual = 0, No Iterations 0
PIMPLE: Iteration 2
MULES: Solving for alpha.air1
MULES: Solving for alpha.air2
MULES: Solving for alpha.air3
MULES: Solving for alpha.water
air1 fraction, min, max = 0.000506733 0.000506733 0.000506733
air2 fraction, min, max = 0.0217364 0.0217364 0.0217364
air3 fraction, min, max = 0.0277583 0.0277583 0.0277583
water fraction, min, max = 0.949999 0.949999 0.949999
Phase-sum volume fraction, min, max = 1 1 1
populationBalance bubbles: Iteration 1
diagonal:  Solving for f0.air1, Initial residual = 0, Final residual = 0, No Iterations 0
diagonal:  Solving for f1.air1, Initial residual = 0, Final residual = 0, No Iterations 0
diagonal:  Solving for f2.air1, Initial residual = 0, Final residual = 0, No Iterations 0
diagonal:  Solving for f3.air1, Initial residual = 0, Final residual = 0, No Iterations 0
diagonal:  Solving for f4.air1, Initial residual = 0, Final residual = 0, No Iterations 0
diagonal:  Solving for f5.air1, Initial residual = 0, Final residual = 0, No Iterations 0
diagonal:  Solving for f6.air1, Initial residual = 0, Final residual = 0, No Iterations 0
diagonal:  Solving for f7.air1, Initial residual = 0, Final residual = 0, No Iterations 0
diagonal:  Solving for f8.air1, Initial residual = 0, Final residual = 0, No Iterations 0
diagonal:  Solving for f9.air1, Initial residual = 0, Final residual = 0, No Iterations 0
diagonal:  Solving for f10.air1, Initial residual = 0, Final residual = 0, No Iterations 0
diagonal:  Solving for f11.air1, Initial residual = 0, Final residual = 0, No Iterations 0
diagonal:  Solving for f12.air1, Initial residual = 0, Final residual = 0, No Iterations 0
diagonal:  Solving for f13.air1, Initial residual = 0, Final residual = 0, No Iterations 0
diagonal:  Solving for f14.air1, Initial residual = 0, Final residual = 0, No Iterations 0
diagonal:  Solving for f15.air1, Initial residual = 0, Final residual = 0, No Iterations 0
diagonal:  Solving for f16.air1, Initial residual = 0, Final residual = 0, No Iterations 0
diagonal:  Solving for f17.air1, Initial residual = 0, Final residual = 0, No Iterations 0
diagonal:  Solving for f18.air1, Initial residual = 0, Final residual = 0, No Iterations 0
diagonal:  Solving for f19.air1, Initial residual = 0, Final residual = 0, No Iterations 0
diagonal:  Solving for f20.air2, Initial residual = 0, Final residual = 0, No Iterations 0
diagonal:  Solving for f21.air2, Initial residual = 0, Final residual = 0, No Iterations 0
diagonal:  Solving for f22.air2, Initial residual = 0, Final residual = 0, No Iterations 0
diagonal:  Solving for f23.air2, Initial residual = 0, Final residual = 0, No Iterations 0
diagonal:  Solving for f24.air2, Initial residual = 0, Final residual = 0, No Iterations 0
diagonal:  Solving for f25.air3, Initial residual = 0, Final residual = 0, No Iterations 0
diagonal:  Solving for f26.air3, Initial residual = 0, Final residual = 0, No Iterations 0
diagonal:  Solving for f27.air3, Initial residual = 0, Final residual = 0, No Iterations 0
diagonal:  Solving for f28.air3, Initial residual = 0, Final residual = 0, No Iterations 0
bubbles sizeGroup phase fraction first, last = 3.45377e-11 8.89441e-05
air1 sizeGroups-sum volume fraction, min, max = 1 1 1
air1 Sauter mean diameter, min, max = 0.324925 0.324925 0.324925
air2 sizeGroups-sum volume fraction, min, max = 1 1 1
air2 Sauter mean diameter, min, max = 0.636605 0.636605 0.636605
air3 sizeGroups-sum volume fraction, min, max = 1.00739 1.00739 1.00739
air3 Sauter mean diameter, min, max = 0.885391 0.885391 0.885391
Constructing momentum equations
diagonal:  Solving for p_rgh, Initial residual = 0, Final residual = 0, No Iterations 0
ExecutionTime = 4.93215 s  ClockTime = 5 s

End

