/*---------------------------------------------------------------------------*\
  =========                 |
  \\      /  F ield         | OpenFOAM: The Open Source CFD Toolbox
   \\    /   O peration     | Website:  https://openfoam.org
    \\  /    A nd           | Version:  12
     \\/     M anipulation  |
\*---------------------------------------------------------------------------*/
Build  : 12-cc05c1b03c38
Exec   : blockMesh
Date   : Oct 10 2024
Time   : 23:17:18
Host   : "DESKTOP-KBPC6IC"
PID    : 4922
I/O    : uncollated
Case   : /home/as/openfoam/OpenFOAM-12/test/postProcessing/channel
nProcs : 1
sigFpe : Enabling floating point exception trapping (FOAM_SIGFPE).
fileModificationChecking : Monitoring run-time modified files using timeStampMaster (fileModificationSkew 10)
allowSystemOperations : Allowing user-supplied system call operations

// * * * * * * * * * * * * * * * * * * * * * * * * * * * * * * * * * * * * * //
Create time

Reading "blockMeshDict"

Creating block mesh from
    "system/blockMeshDict"
No non-linear block edges defined
No non-planar block faces defined
Creating topology blocks
Creating topology patches

Creating block mesh topology

Check topology

	Basic statistics
		Number of internal faces : 0
		Number of boundary faces : 6
		Number of defined boundary faces : 6
		Number of undefined boundary faces : 0
	Checking patch -> block consistency

Creating block offsets
Creating merge list .

Creating polyMesh from blockMesh
Creating patches
Creating cells
Creating points with scale 0.5
    Block 0 cell size :
        i : 1
        j : 1
        k : 0.1

No patch pairs to merge

Writing polyMesh
----------------
Mesh Information
----------------
  boundingBox: (-0.5 -0.5 -0.05) (0.5 0.5 0.05)
  nPoints: 8
  nCells: 1
  nFaces: 6
  nInternalFaces: 0
----------------
Patches
----------------
  patch 0 (start: 0 size: 1) name: inlet
  patch 1 (start: 1 size: 1) name: outlet
  patch 2 (start: 2 size: 2) name: walls
  patch 3 (start: 4 size: 2) name: frontAndBack

End

