/*---------------------------------------------------------------------------*\
  =========                 |
  \\      /  F ield         | OpenFOAM: The Open Source CFD Toolbox
   \\    /   O peration     | Website:  https://openfoam.org
    \\  /    A nd           | Version:  12
     \\/     M anipulation  |
\*---------------------------------------------------------------------------*/
Build  : 12-cc05c1b03c38
Exec   : foamRun
Date   : Oct 10 2024
Time   : 23:17:22
Host   : "DESKTOP-KBPC6IC"
PID    : 4926
I/O    : uncollated
Case   : /home/as/openfoam/OpenFOAM-12/test/postProcessing/channel
nProcs : 1
sigFpe : Enabling floating point exception trapping (FOAM_SIGFPE).
fileModificationChecking : Monitoring run-time modified files using timeStampMaster (fileModificationSkew 10)
allowSystemOperations : Allowing user-supplied system call operations

// * * * * * * * * * * * * * * * * * * * * * * * * * * * * * * * * * * * * * //
Create time

Create mesh for time = 0

Selecting solver fluid
Selecting thermodynamics package 
{
    type            hePsiThermo;
    mixture         pureMixture;
    transport       const;
    thermo          hConst;
    equationOfState perfectGas;
    specie          specie;
    energy          sensibleEnthalpy;
}

Selecting turbulence model type RAS
Selecting RAS turbulence model kEpsilon
RAS
{
    model           kEpsilon;
    turbulence      on;
    printCoeffs     on;
    Cmu             0.09;
    C1              1.44;
    C2              1.92;
    C3              0;
    sigmak          1;
    sigmaEps        1.3;
}

No MRF models present

Courant Number mean: 0.08 max: 0.08
Selecting thermophysical transport type RAS
Selecting RAS thermophysical transport model eddyDiffusivity

PIMPLE: No convergence criteria found


PIMPLE: Operating solver in transient mode with 1 outer corrector
PIMPLE: Operating solver in PISO mode



Starting time loop

turbulenceFields turbulenceFields(nuEff,R,devTau): storing fields:
    nuEff
    devTau
    R

wallHeatFlux wallHeatFlux:
    processing all wall patches

wallHeatTransferCoeff:
    processing all wall patches

wallShearStress wallShearStress:
    processing all wall patches

Reading set description:
    line

Reading set description:
    line

layerAverage graphLayerAverage(patches=(inlet),axis=x,fields=(pU)):
    Detected 1 layers

Reading set description:
    points

Reading set description:
    points

streamlines streamlinesSphere(centre=(000),radius=0.1,nPoints=100,p,U,direction=forward):
    automatic track length specified through number of sub cycles : 5

streamlines streamlinesLine(start=(-0.5-0.5-0.05),end=(0.50.50.05),nPoints=100,p,U,direction=backward):
    automatic track length specified through number of sub cycles : 5

streamlines streamlinesPatch(patch=inlet,nPoints=100,p,U):
    automatic track length specified through number of sub cycles : 5

streamlines streamlinesPoints(points=((-0.2-0.20)(000)(0.20.20))p,U,direction=forward):
    automatic track length specified through number of sub cycles : 5

Reading surface description:
    cutPlane

Reading surface description:
    isoSurface

Reading surface description:
    patch

surfaceFieldValue patchAverage(patch=inlet,k):
    total faces  = 1
    total area   = 0.1


surfaceFieldValue patchIntegrate(patch=inlet,epsilon):
    total faces  = 1
    total area   = 0.1


surfaceFieldValue patchFlowRate(patch=inlet):
    total faces  = 1
    total area   = 0.1


surfaceFieldValue patchDifference(patch1=inlet,patch2=outlet,p).region1:
    total faces  = 1
    total area   = 0.1


surfaceFieldValue patchDifference(patch1=inlet,patch2=outlet,p).region2:
    total faces  = 1
    total area   = 0.1


surfaceFieldValue faceZoneAverage(faceZone=f0,U):
    total faces  = 1
    total area   = 0.1


surfaceFieldValue faceZoneFlowRate(faceZone=f0):
    total faces  = 1
    total area   = 0.1


surfaceFieldValue triSurfaceAverage(triSurface=mid.obj,p):
    total faces  = 80
    total area   = 0.1


surfaceFieldValue triSurfaceVolumetricFlowRate(triSurface=mid.obj):
    total faces  = 80
    total area   = 0.1


surfaceFieldValue triSurfaceDifference(name1=nearInlet.obj,name2=nearOutlet.obj,p).region1:
    total faces  = 80
    total area   = 0.1


surfaceFieldValue triSurfaceDifference(name1=nearInlet.obj,name2=nearOutlet.obj,p).region2:
    total faces  = 80
    total area   = 0.1


    - selecting all cells
    - selected 1 cell(s) with volume 0.1


    - selecting all cells
    - selected 1 cell(s) with volume 0.1


    - selecting all cells
    - selected 1 cell(s) with volume 0.1


    - selecting all cells
    - selected 1 cell(s) with volume 0.1


    - selecting all cells
    - selected 1 cell(s) with volume 0.1


    - selecting all cells
    - selected 1 cell(s) with volume 0.1


diagonal:  Solving for age, Initial residual = 0, Final residual = 0, No Iterations 0
Field age converged in 0 correctors

Min/max age:0 0.125
writeVTK writeVTK(U,p) output:
Time: 0
    Internal  : "/home/as/openfoam/OpenFOAM-12/test/postProcessing/channel/VTK/channel_0.vtk"
    Original cells:1 points:8   Additional cells:0  additional points:0

    Writing volVectorField field U
    Writing volScalarField field p
--> FOAM Warning : functionObjects::subtract subtract(U,UMean,result=u) cannot find fields 1(UMean)
--> FOAM Warning : functionObjects::divide divide(u,stabilise(mag(U)),result=uFrac) cannot find fields 1(u)
--> FOAM Warning : functionObjects::multiply multiply(U,u) cannot find fields 1(u)
scalarTransport write:
diagonal:  Solving for s, Initial residual = 0, Final residual = 0, No Iterations 0

phaseScalarTransport: Executing
diagonal:  Solving for phaseScalarTransport:Phi.dummy, Initial residual = 0, Final residual = 0, No Iterations 0
diagonal:  Solving for s.dummy, Initial residual = 0, Final residual = 0, No Iterations 0

streamlines streamlinesSphere(centre=(000),radius=0.1,nPoints=100,p,U,direction=forward) write:
    Seeded 62 particles
    Sampled 372 locations
streamlines streamlinesLine(start=(-0.5-0.5-0.05),end=(0.50.50.05),nPoints=100,p,U,direction=backward) write:
    Seeded 100 particles
    Sampled 600 locations
streamlines streamlinesPatch(patch=inlet,nPoints=100,p,U) write:
    Seeded 100 particles
    Sampled 1200 locations
streamlines streamlinesPoints(points=((-0.2-0.20)(000)(0.20.20))p,U,direction=forward) write:
    Seeded 3 particles
    Sampled 18 locations
Courant Number mean: 0.08 max: 0.08
Time = 0.01s

diagonal:  Solving for rho, Initial residual = 0, Final residual = 0, No Iterations 0
diagonal:  Solving for Ux, Initial residual = 0, Final residual = 0, No Iterations 0
diagonal:  Solving for Uy, Initial residual = 0, Final residual = 0, No Iterations 0
diagonal:  Solving for h, Initial residual = 0, Final residual = 0, No Iterations 0
diagonal:  Solving for p_rgh, Initial residual = 0, Final residual = 0, No Iterations 0
diagonal:  Solving for rho, Initial residual = 0, Final residual = 0, No Iterations 0
time step continuity errors : sum local = 2.10737365e-15, global = -2.10737365e-15, cumulative = -2.10737365e-15
diagonal:  Solving for p_rgh, Initial residual = 0, Final residual = 0, No Iterations 0
diagonal:  Solving for rho, Initial residual = 0, Final residual = 0, No Iterations 0
time step continuity errors : sum local = 2.682107196e-15, global = -2.682107196e-15, cumulative = -4.789480847e-15
diagonal:  Solving for epsilon, Initial residual = 0, Final residual = 0, No Iterations 0
diagonal:  Solving for k, Initial residual = 0, Final residual = 0, No Iterations 0
ExecutionTime = 2.363663 s  ClockTime = 3 s

scalarTransport write:
diagonal:  Solving for s, Initial residual = 0, Final residual = 0, No Iterations 0

phaseScalarTransport: Executing
diagonal:  Solving for phaseScalarTransport:Phi.dummy, Initial residual = 0, Final residual = 0, No Iterations 0
diagonal:  Solving for s.dummy, Initial residual = 0, Final residual = 0, No Iterations 0

Courant Number mean: 0.08613675763 max: 0.08613675763
Time = 0.02s

diagonal:  Solving for rho, Initial residual = 0, Final residual = 0, No Iterations 0
diagonal:  Solving for Ux, Initial residual = 0, Final residual = 0, No Iterations 0
diagonal:  Solving for Uy, Initial residual = 0, Final residual = 0, No Iterations 0
diagonal:  Solving for h, Initial residual = 0, Final residual = 0, No Iterations 0
diagonal:  Solving for p_rgh, Initial residual = 0, Final residual = 0, No Iterations 0
diagonal:  Solving for rho, Initial residual = 0, Final residual = 0, No Iterations 0
time step continuity errors : sum local = 5.74872384e-16, global = -5.74872384e-16, cumulative = -5.364353231e-15
diagonal:  Solving for p_rgh, Initial residual = 0, Final residual = 0, No Iterations 0
diagonal:  Solving for rho, Initial residual = 0, Final residual = 0, No Iterations 0
time step continuity errors : sum local = 2.491115611e-15, global = -2.491115611e-15, cumulative = -7.855468842e-15
diagonal:  Solving for epsilon, Initial residual = 0, Final residual = 0, No Iterations 0
diagonal:  Solving for k, Initial residual = 0, Final residual = 0, No Iterations 0
ExecutionTime = 2.371973 s  ClockTime = 3 s

scalarTransport write:
diagonal:  Solving for s, Initial residual = 0, Final residual = 0, No Iterations 0

phaseScalarTransport: Executing
diagonal:  Solving for phaseScalarTransport:Phi.dummy, Initial residual = 0, Final residual = 0, No Iterations 0
diagonal:  Solving for s.dummy, Initial residual = 0, Final residual = 0, No Iterations 0

Courant Number mean: 0.08640481639 max: 0.08640481639
Time = 0.03s

diagonal:  Solving for rho, Initial residual = 0, Final residual = 0, No Iterations 0
diagonal:  Solving for Ux, Initial residual = 0, Final residual = 0, No Iterations 0
diagonal:  Solving for Uy, Initial residual = 0, Final residual = 0, No Iterations 0
diagonal:  Solving for h, Initial residual = 0, Final residual = 0, No Iterations 0
diagonal:  Solving for p_rgh, Initial residual = 0, Final residual = 0, No Iterations 0
diagonal:  Solving for rho, Initial residual = 0, Final residual = 0, No Iterations 0
time step continuity errors : sum local = 1.916359767e-16, global = -1.916359767e-16, cumulative = -8.047104818e-15
diagonal:  Solving for p_rgh, Initial residual = 0, Final residual = 0, No Iterations 0
diagonal:  Solving for rho, Initial residual = 0, Final residual = 0, No Iterations 0
time step continuity errors : sum local = 9.581804372e-16, global = 9.581804372e-16, cumulative = -7.088924381e-15
diagonal:  Solving for epsilon, Initial residual = 0, Final residual = 0, No Iterations 0
diagonal:  Solving for k, Initial residual = 0, Final residual = 0, No Iterations 0
ExecutionTime = 2.385916 s  ClockTime = 3 s

scalarTransport write:
diagonal:  Solving for s, Initial residual = 0, Final residual = 0, No Iterations 0

phaseScalarTransport: Executing
diagonal:  Solving for phaseScalarTransport:Phi.dummy, Initial residual = 0, Final residual = 0, No Iterations 0
diagonal:  Solving for s.dummy, Initial residual = 0, Final residual = 0, No Iterations 0

Courant Number mean: 0.08632642952 max: 0.08632642952
Time = 0.04s

diagonal:  Solving for rho, Initial residual = 0, Final residual = 0, No Iterations 0
diagonal:  Solving for Ux, Initial residual = 0, Final residual = 0, No Iterations 0
diagonal:  Solving for Uy, Initial residual = 0, Final residual = 0, No Iterations 0
diagonal:  Solving for h, Initial residual = 0, Final residual = 0, No Iterations 0
diagonal:  Solving for p_rgh, Initial residual = 0, Final residual = 0, No Iterations 0
diagonal:  Solving for rho, Initial residual = 0, Final residual = 0, No Iterations 0
time step continuity errors : sum local = 1.341467438e-15, global = 1.341467438e-15, cumulative = -5.747456943e-15
diagonal:  Solving for p_rgh, Initial residual = 0, Final residual = 0, No Iterations 0
diagonal:  Solving for rho, Initial residual = 0, Final residual = 0, No Iterations 0
time step continuity errors : sum local = 5.749147495e-16, global = 5.749147495e-16, cumulative = -5.172542194e-15
diagonal:  Solving for epsilon, Initial residual = 0, Final residual = 0, No Iterations 0
diagonal:  Solving for k, Initial residual = 0, Final residual = 0, No Iterations 0
ExecutionTime = 2.395017 s  ClockTime = 3 s

scalarTransport write:
diagonal:  Solving for s, Initial residual = 0, Final residual = 0, No Iterations 0

phaseScalarTransport: Executing
diagonal:  Solving for phaseScalarTransport:Phi.dummy, Initial residual = 0, Final residual = 0, No Iterations 0
diagonal:  Solving for s.dummy, Initial residual = 0, Final residual = 0, No Iterations 0

Courant Number mean: 0.08630804253 max: 0.08630804253
Time = 0.05s

diagonal:  Solving for rho, Initial residual = 0, Final residual = 0, No Iterations 0
diagonal:  Solving for Ux, Initial residual = 0, Final residual = 0, No Iterations 0
diagonal:  Solving for Uy, Initial residual = 0, Final residual = 0, No Iterations 0
diagonal:  Solving for h, Initial residual = 0, Final residual = 0, No Iterations 0
diagonal:  Solving for p_rgh, Initial residual = 0, Final residual = 0, No Iterations 0
diagonal:  Solving for rho, Initial residual = 0, Final residual = 0, No Iterations 0
time step continuity errors : sum local = 2.491311537e-15, global = 2.491311537e-15, cumulative = -2.681230657e-15
diagonal:  Solving for p_rgh, Initial residual = 0, Final residual = 0, No Iterations 0
diagonal:  Solving for rho, Initial residual = 0, Final residual = 0, No Iterations 0
time step continuity errors : sum local = 1.149836201e-15, global = 1.149836201e-15, cumulative = -1.531394455e-15
diagonal:  Solving for epsilon, Initial residual = 0, Final residual = 0, No Iterations 0
diagonal:  Solving for k, Initial residual = 0, Final residual = 0, No Iterations 0
ExecutionTime = 2.405041 s  ClockTime = 3 s

scalarTransport write:
diagonal:  Solving for s, Initial residual = 0, Final residual = 0, No Iterations 0

phaseScalarTransport: Executing
diagonal:  Solving for phaseScalarTransport:Phi.dummy, Initial residual = 0, Final residual = 0, No Iterations 0
diagonal:  Solving for s.dummy, Initial residual = 0, Final residual = 0, No Iterations 0

Courant Number mean: 0.08630814277 max: 0.08630814277
Time = 0.06s

diagonal:  Solving for rho, Initial residual = 0, Final residual = 0, No Iterations 0
diagonal:  Solving for Ux, Initial residual = 0, Final residual = 0, No Iterations 0
diagonal:  Solving for Uy, Initial residual = 0, Final residual = 0, No Iterations 0
diagonal:  Solving for h, Initial residual = 0, Final residual = 0, No Iterations 0
diagonal:  Solving for p_rgh, Initial residual = 0, Final residual = 0, No Iterations 0
diagonal:  Solving for rho, Initial residual = 0, Final residual = 0, No Iterations 0
time step continuity errors : sum local = 1.341481163e-15, global = 1.341481163e-15, cumulative = -1.899132926e-16
diagonal:  Solving for p_rgh, Initial residual = 0, Final residual = 0, No Iterations 0
diagonal:  Solving for rho, Initial residual = 0, Final residual = 0, No Iterations 0
time step continuity errors : sum local = 2.874602611e-15, global = 2.874602611e-15, cumulative = 2.684689318e-15
diagonal:  Solving for epsilon, Initial residual = 0, Final residual = 0, No Iterations 0
diagonal:  Solving for k, Initial residual = 0, Final residual = 0, No Iterations 0
ExecutionTime = 2.41189 s  ClockTime = 3 s

scalarTransport write:
diagonal:  Solving for s, Initial residual = 0, Final residual = 0, No Iterations 0

phaseScalarTransport: Executing
diagonal:  Solving for phaseScalarTransport:Phi.dummy, Initial residual = 0, Final residual = 0, No Iterations 0
diagonal:  Solving for s.dummy, Initial residual = 0, Final residual = 0, No Iterations 0

Courant Number mean: 0.08630857083 max: 0.08630857083
Time = 0.07s

diagonal:  Solving for rho, Initial residual = 0, Final residual = 0, No Iterations 0
diagonal:  Solving for Ux, Initial residual = 0, Final residual = 0, No Iterations 0
diagonal:  Solving for Uy, Initial residual = 0, Final residual = 0, No Iterations 0
diagonal:  Solving for h, Initial residual = 0, Final residual = 0, No Iterations 0
diagonal:  Solving for p_rgh, Initial residual = 0, Final residual = 0, No Iterations 0
diagonal:  Solving for rho, Initial residual = 0, Final residual = 0, No Iterations 0
time step continuity errors : sum local = 0, global = 0, cumulative = 2.684689318e-15
diagonal:  Solving for p_rgh, Initial residual = 0, Final residual = 0, No Iterations 0
diagonal:  Solving for rho, Initial residual = 0, Final residual = 0, No Iterations 0
time step continuity errors : sum local = 7.665629538e-16, global = -7.665629538e-16, cumulative = 1.918126365e-15
diagonal:  Solving for epsilon, Initial residual = 0, Final residual = 0, No Iterations 0
diagonal:  Solving for k, Initial residual = 0, Final residual = 0, No Iterations 0
ExecutionTime = 2.439968 s  ClockTime = 3 s

scalarTransport write:
diagonal:  Solving for s, Initial residual = 0, Final residual = 0, No Iterations 0

phaseScalarTransport: Executing
diagonal:  Solving for phaseScalarTransport:Phi.dummy, Initial residual = 0, Final residual = 0, No Iterations 0
diagonal:  Solving for s.dummy, Initial residual = 0, Final residual = 0, No Iterations 0

Courant Number mean: 0.08630857306 max: 0.08630857306
Time = 0.08s

diagonal:  Solving for rho, Initial residual = 0, Final residual = 0, No Iterations 0
diagonal:  Solving for Ux, Initial residual = 0, Final residual = 0, No Iterations 0
diagonal:  Solving for Uy, Initial residual = 0, Final residual = 0, No Iterations 0
diagonal:  Solving for h, Initial residual = 0, Final residual = 0, No Iterations 0
diagonal:  Solving for p_rgh, Initial residual = 0, Final residual = 0, No Iterations 0
diagonal:  Solving for rho, Initial residual = 0, Final residual = 0, No Iterations 0
time step continuity errors : sum local = 2.10805278e-15, global = -2.10805278e-15, cumulative = -1.899264154e-16
diagonal:  Solving for p_rgh, Initial residual = 0, Final residual = 0, No Iterations 0
diagonal:  Solving for rho, Initial residual = 0, Final residual = 0, No Iterations 0
time step continuity errors : sum local = 0, global = 0, cumulative = -1.899264154e-16
diagonal:  Solving for epsilon, Initial residual = 0, Final residual = 0, No Iterations 0
diagonal:  Solving for k, Initial residual = 0, Final residual = 0, No Iterations 0
ExecutionTime = 2.456289 s  ClockTime = 3 s

scalarTransport write:
diagonal:  Solving for s, Initial residual = 0, Final residual = 0, No Iterations 0

phaseScalarTransport: Executing
diagonal:  Solving for phaseScalarTransport:Phi.dummy, Initial residual = 0, Final residual = 0, No Iterations 0
diagonal:  Solving for s.dummy, Initial residual = 0, Final residual = 0, No Iterations 0

Courant Number mean: 0.08630857558 max: 0.08630857558
Time = 0.09s

diagonal:  Solving for rho, Initial residual = 0, Final residual = 0, No Iterations 0
diagonal:  Solving for Ux, Initial residual = 0, Final residual = 0, No Iterations 0
diagonal:  Solving for Uy, Initial residual = 0, Final residual = 0, No Iterations 0
diagonal:  Solving for h, Initial residual = 0, Final residual = 0, No Iterations 0
diagonal:  Solving for p_rgh, Initial residual = 0, Final residual = 0, No Iterations 0
diagonal:  Solving for rho, Initial residual = 0, Final residual = 0, No Iterations 0
time step continuity errors : sum local = 1.149849071e-15, global = 1.149849071e-15, cumulative = 9.599226554e-16
diagonal:  Solving for p_rgh, Initial residual = 0, Final residual = 0, No Iterations 0
diagonal:  Solving for rho, Initial residual = 0, Final residual = 0, No Iterations 0
time step continuity errors : sum local = 1.916415125e-15, global = 1.916415125e-15, cumulative = 2.876337781e-15
diagonal:  Solving for epsilon, Initial residual = 0, Final residual = 0, No Iterations 0
diagonal:  Solving for k, Initial residual = 0, Final residual = 0, No Iterations 0
ExecutionTime = 2.46523 s  ClockTime = 3 s

scalarTransport write:
diagonal:  Solving for s, Initial residual = 0, Final residual = 0, No Iterations 0

phaseScalarTransport: Executing
diagonal:  Solving for phaseScalarTransport:Phi.dummy, Initial residual = 0, Final residual = 0, No Iterations 0
diagonal:  Solving for s.dummy, Initial residual = 0, Final residual = 0, No Iterations 0

Courant Number mean: 0.08630861356 max: 0.08630861356
Time = 0.1s

diagonal:  Solving for rho, Initial residual = 0, Final residual = 0, No Iterations 0
diagonal:  Solving for Ux, Initial residual = 0, Final residual = 0, No Iterations 0
diagonal:  Solving for Uy, Initial residual = 0, Final residual = 0, No Iterations 0
diagonal:  Solving for h, Initial residual = 0, Final residual = 0, No Iterations 0
diagonal:  Solving for p_rgh, Initial residual = 0, Final residual = 0, No Iterations 0
diagonal:  Solving for rho, Initial residual = 0, Final residual = 0, No Iterations 0
time step continuity errors : sum local = 1.533134515e-15, global = -1.533134515e-15, cumulative = 1.343203266e-15
diagonal:  Solving for p_rgh, Initial residual = 0, Final residual = 0, No Iterations 0
diagonal:  Solving for rho, Initial residual = 0, Final residual = 0, No Iterations 0
time step continuity errors : sum local = 3.449552664e-15, global = 3.449552664e-15, cumulative = 4.79275593e-15
diagonal:  Solving for epsilon, Initial residual = 0, Final residual = 0, No Iterations 0
diagonal:  Solving for k, Initial residual = 0, Final residual = 0, No Iterations 0
ExecutionTime = 2.476188 s  ClockTime = 3 s

scalarTransport write:
diagonal:  Solving for s, Initial residual = 0, Final residual = 0, No Iterations 0

phaseScalarTransport: Executing
diagonal:  Solving for phaseScalarTransport:Phi.dummy, Initial residual = 0, Final residual = 0, No Iterations 0
diagonal:  Solving for s.dummy, Initial residual = 0, Final residual = 0, No Iterations 0

Courant Number mean: 0.08630866239 max: 0.08630866239
Time = 0.11s

diagonal:  Solving for rho, Initial residual = 0, Final residual = 0, No Iterations 0
diagonal:  Solving for Ux, Initial residual = 0, Final residual = 0, No Iterations 0
diagonal:  Solving for Uy, Initial residual = 0, Final residual = 0, No Iterations 0
diagonal:  Solving for h, Initial residual = 0, Final residual = 0, No Iterations 0
diagonal:  Solving for p_rgh, Initial residual = 0, Final residual = 0, No Iterations 0
diagonal:  Solving for rho, Initial residual = 0, Final residual = 0, No Iterations 0
time step continuity errors : sum local = 1.916420833e-15, global = 1.916420833e-15, cumulative = 6.709176763e-15
diagonal:  Solving for p_rgh, Initial residual = 0, Final residual = 0, No Iterations 0
diagonal:  Solving for rho, Initial residual = 0, Final residual = 0, No Iterations 0
time step continuity errors : sum local = 1.916420834e-15, global = 1.916420834e-15, cumulative = 8.625597597e-15
diagonal:  Solving for epsilon, Initial residual = 0, Final residual = 0, No Iterations 0
diagonal:  Solving for k, Initial residual = 0, Final residual = 0, No Iterations 0
ExecutionTime = 2.48605 s  ClockTime = 3 s

scalarTransport write:
diagonal:  Solving for s, Initial residual = 0, Final residual = 0, No Iterations 0

phaseScalarTransport: Executing
diagonal:  Solving for phaseScalarTransport:Phi.dummy, Initial residual = 0, Final residual = 0, No Iterations 0
diagonal:  Solving for s.dummy, Initial residual = 0, Final residual = 0, No Iterations 0

Courant Number mean: 0.08630871201 max: 0.08630871201
Time = 0.12s

diagonal:  Solving for rho, Initial residual = 0, Final residual = 0, No Iterations 0
diagonal:  Solving for Ux, Initial residual = 0, Final residual = 0, No Iterations 0
diagonal:  Solving for Uy, Initial residual = 0, Final residual = 0, No Iterations 0
diagonal:  Solving for h, Initial residual = 0, Final residual = 0, No Iterations 0
diagonal:  Solving for p_rgh, Initial residual = 0, Final residual = 0, No Iterations 0
diagonal:  Solving for rho, Initial residual = 0, Final residual = 0, No Iterations 0
time step continuity errors : sum local = 2.108065584e-15, global = -2.108065584e-15, cumulative = 6.517532013e-15
diagonal:  Solving for p_rgh, Initial residual = 0, Final residual = 0, No Iterations 0
diagonal:  Solving for rho, Initial residual = 0, Final residual = 0, No Iterations 0
time step continuity errors : sum local = 1.724780933e-15, global = -1.724780933e-15, cumulative = 4.79275108e-15
diagonal:  Solving for epsilon, Initial residual = 0, Final residual = 0, No Iterations 0
diagonal:  Solving for k, Initial residual = 0, Final residual = 0, No Iterations 0
ExecutionTime = 2.493917 s  ClockTime = 3 s

scalarTransport write:
diagonal:  Solving for s, Initial residual = 0, Final residual = 0, No Iterations 0

phaseScalarTransport: Executing
diagonal:  Solving for phaseScalarTransport:Phi.dummy, Initial residual = 0, Final residual = 0, No Iterations 0
diagonal:  Solving for s.dummy, Initial residual = 0, Final residual = 0, No Iterations 0

Courant Number mean: 0.08630875954 max: 0.08630875954
Time = 0.13s

diagonal:  Solving for rho, Initial residual = 0, Final residual = 0, No Iterations 0
diagonal:  Solving for Ux, Initial residual = 0, Final residual = 0, No Iterations 0
diagonal:  Solving for Uy, Initial residual = 0, Final residual = 0, No Iterations 0
diagonal:  Solving for h, Initial residual = 0, Final residual = 0, No Iterations 0
diagonal:  Solving for p_rgh, Initial residual = 0, Final residual = 0, No Iterations 0
diagonal:  Solving for rho, Initial residual = 0, Final residual = 0, No Iterations 0
time step continuity errors : sum local = 2.682995646e-15, global = -2.682995646e-15, cumulative = 2.109755434e-15
diagonal:  Solving for p_rgh, Initial residual = 0, Final residual = 0, No Iterations 0
diagonal:  Solving for rho, Initial residual = 0, Final residual = 0, No Iterations 0
time step continuity errors : sum local = 0, global = 0, cumulative = 2.109755434e-15
diagonal:  Solving for epsilon, Initial residual = 0, Final residual = 0, No Iterations 0
diagonal:  Solving for k, Initial residual = 0, Final residual = 0, No Iterations 0
ExecutionTime = 2.502089 s  ClockTime = 3 s

scalarTransport write:
diagonal:  Solving for s, Initial residual = 0, Final residual = 0, No Iterations 0

phaseScalarTransport: Executing
diagonal:  Solving for phaseScalarTransport:Phi.dummy, Initial residual = 0, Final residual = 0, No Iterations 0
diagonal:  Solving for s.dummy, Initial residual = 0, Final residual = 0, No Iterations 0

Courant Number mean: 0.08630880402 max: 0.08630880402
Time = 0.14s

diagonal:  Solving for rho, Initial residual = 0, Final residual = 0, No Iterations 0
diagonal:  Solving for Ux, Initial residual = 0, Final residual = 0, No Iterations 0
diagonal:  Solving for Uy, Initial residual = 0, Final residual = 0, No Iterations 0
diagonal:  Solving for h, Initial residual = 0, Final residual = 0, No Iterations 0
diagonal:  Solving for p_rgh, Initial residual = 0, Final residual = 0, No Iterations 0
diagonal:  Solving for rho, Initial residual = 0, Final residual = 0, No Iterations 0
time step continuity errors : sum local = 5.749282409e-16, global = 5.749282409e-16, cumulative = 2.684683675e-15
diagonal:  Solving for p_rgh, Initial residual = 0, Final residual = 0, No Iterations 0
diagonal:  Solving for rho, Initial residual = 0, Final residual = 0, No Iterations 0
time step continuity errors : sum local = 3.066283952e-15, global = 3.066283952e-15, cumulative = 5.750967627e-15
diagonal:  Solving for epsilon, Initial residual = 0, Final residual = 0, No Iterations 0
diagonal:  Solving for k, Initial residual = 0, Final residual = 0, No Iterations 0
ExecutionTime = 2.518888 s  ClockTime = 3 s

scalarTransport write:
diagonal:  Solving for s, Initial residual = 0, Final residual = 0, No Iterations 0

phaseScalarTransport: Executing
diagonal:  Solving for phaseScalarTransport:Phi.dummy, Initial residual = 0, Final residual = 0, No Iterations 0
diagonal:  Solving for s.dummy, Initial residual = 0, Final residual = 0, No Iterations 0

Courant Number mean: 0.08630884516 max: 0.08630884516
Time = 0.15s

diagonal:  Solving for rho, Initial residual = 0, Final residual = 0, No Iterations 0
diagonal:  Solving for Ux, Initial residual = 0, Final residual = 0, No Iterations 0
diagonal:  Solving for Uy, Initial residual = 0, Final residual = 0, No Iterations 0
diagonal:  Solving for h, Initial residual = 0, Final residual = 0, No Iterations 0
diagonal:  Solving for p_rgh, Initial residual = 0, Final residual = 0, No Iterations 0
diagonal:  Solving for rho, Initial residual = 0, Final residual = 0, No Iterations 0
time step continuity errors : sum local = 1.724786374e-15, global = -1.724786374e-15, cumulative = 4.026181254e-15
diagonal:  Solving for p_rgh, Initial residual = 0, Final residual = 0, No Iterations 0
diagonal:  Solving for rho, Initial residual = 0, Final residual = 0, No Iterations 0
time step continuity errors : sum local = 3.832858608e-16, global = 3.832858608e-16, cumulative = 4.409467114e-15
diagonal:  Solving for epsilon, Initial residual = 0, Final residual = 0, No Iterations 0
diagonal:  Solving for k, Initial residual = 0, Final residual = 0, No Iterations 0
ExecutionTime = 2.548161 s  ClockTime = 3 s

scalarTransport write:
diagonal:  Solving for s, Initial residual = 0, Final residual = 0, No Iterations 0

phaseScalarTransport: Executing
diagonal:  Solving for phaseScalarTransport:Phi.dummy, Initial residual = 0, Final residual = 0, No Iterations 0
diagonal:  Solving for s.dummy, Initial residual = 0, Final residual = 0, No Iterations 0

Courant Number mean: 0.08630888299 max: 0.08630888299
Time = 0.16s

diagonal:  Solving for rho, Initial residual = 0, Final residual = 0, No Iterations 0
diagonal:  Solving for Ux, Initial residual = 0, Final residual = 0, No Iterations 0
diagonal:  Solving for Uy, Initial residual = 0, Final residual = 0, No Iterations 0
diagonal:  Solving for h, Initial residual = 0, Final residual = 0, No Iterations 0
diagonal:  Solving for p_rgh, Initial residual = 0, Final residual = 0, No Iterations 0
diagonal:  Solving for rho, Initial residual = 0, Final residual = 0, No Iterations 0
time step continuity errors : sum local = 1.916430981e-16, global = -1.916430981e-16, cumulative = 4.217824016e-15
diagonal:  Solving for p_rgh, Initial residual = 0, Final residual = 0, No Iterations 0
diagonal:  Solving for rho, Initial residual = 0, Final residual = 0, No Iterations 0
time step continuity errors : sum local = 7.665723924e-16, global = -7.665723924e-16, cumulative = 3.451251624e-15
diagonal:  Solving for epsilon, Initial residual = 0, Final residual = 0, No Iterations 0
diagonal:  Solving for k, Initial residual = 0, Final residual = 0, No Iterations 0
ExecutionTime = 2.578081 s  ClockTime = 3 s

scalarTransport write:
diagonal:  Solving for s, Initial residual = 0, Final residual = 0, No Iterations 0

phaseScalarTransport: Executing
diagonal:  Solving for phaseScalarTransport:Phi.dummy, Initial residual = 0, Final residual = 0, No Iterations 0
diagonal:  Solving for s.dummy, Initial residual = 0, Final residual = 0, No Iterations 0

Courant Number mean: 0.08630891769 max: 0.08630891769
Time = 0.17s

diagonal:  Solving for rho, Initial residual = 0, Final residual = 0, No Iterations 0
diagonal:  Solving for Ux, Initial residual = 0, Final residual = 0, No Iterations 0
diagonal:  Solving for Uy, Initial residual = 0, Final residual = 0, No Iterations 0
diagonal:  Solving for h, Initial residual = 0, Final residual = 0, No Iterations 0
diagonal:  Solving for p_rgh, Initial residual = 0, Final residual = 0, No Iterations 0
diagonal:  Solving for rho, Initial residual = 0, Final residual = 0, No Iterations 0
time step continuity errors : sum local = 2.108075766e-15, global = -2.108075766e-15, cumulative = 1.343175858e-15
diagonal:  Solving for p_rgh, Initial residual = 0, Final residual = 0, No Iterations 0
diagonal:  Solving for rho, Initial residual = 0, Final residual = 0, No Iterations 0
time step continuity errors : sum local = 1.34150276e-15, global = -1.34150276e-15, cumulative = 1.673098403e-18
diagonal:  Solving for epsilon, Initial residual = 0, Final residual = 0, No Iterations 0
diagonal:  Solving for k, Initial residual = 0, Final residual = 0, No Iterations 0
ExecutionTime = 2.592836 s  ClockTime = 3 s

scalarTransport write:
diagonal:  Solving for s, Initial residual = 0, Final residual = 0, No Iterations 0

phaseScalarTransport: Executing
diagonal:  Solving for phaseScalarTransport:Phi.dummy, Initial residual = 0, Final residual = 0, No Iterations 0
diagonal:  Solving for s.dummy, Initial residual = 0, Final residual = 0, No Iterations 0

Courant Number mean: 0.08630894948 max: 0.08630894948
Time = 0.18s

diagonal:  Solving for rho, Initial residual = 0, Final residual = 0, No Iterations 0
diagonal:  Solving for Ux, Initial residual = 0, Final residual = 0, No Iterations 0
diagonal:  Solving for Uy, Initial residual = 0, Final residual = 0, No Iterations 0
diagonal:  Solving for h, Initial residual = 0, Final residual = 0, No Iterations 0
diagonal:  Solving for p_rgh, Initial residual = 0, Final residual = 0, No Iterations 0
diagonal:  Solving for rho, Initial residual = 0, Final residual = 0, No Iterations 0
time step continuity errors : sum local = 9.582169584e-16, global = 9.582169584e-16, cumulative = 9.598900568e-16
diagonal:  Solving for p_rgh, Initial residual = 0, Final residual = 0, No Iterations 0
diagonal:  Solving for rho, Initial residual = 0, Final residual = 0, No Iterations 0
time step continuity errors : sum local = 7.665735667e-16, global = 7.665735667e-16, cumulative = 1.726463623e-15
diagonal:  Solving for epsilon, Initial residual = 0, Final residual = 0, No Iterations 0
diagonal:  Solving for k, Initial residual = 0, Final residual = 0, No Iterations 0
ExecutionTime = 2.603165 s  ClockTime = 3 s

scalarTransport write:
diagonal:  Solving for s, Initial residual = 0, Final residual = 0, No Iterations 0

phaseScalarTransport: Executing
diagonal:  Solving for phaseScalarTransport:Phi.dummy, Initial residual = 0, Final residual = 0, No Iterations 0
diagonal:  Solving for s.dummy, Initial residual = 0, Final residual = 0, No Iterations 0

Courant Number mean: 0.08630897857 max: 0.08630897857
Time = 0.19s

diagonal:  Solving for rho, Initial residual = 0, Final residual = 0, No Iterations 0
diagonal:  Solving for Ux, Initial residual = 0, Final residual = 0, No Iterations 0
diagonal:  Solving for Uy, Initial residual = 0, Final residual = 0, No Iterations 0
diagonal:  Solving for h, Initial residual = 0, Final residual = 0, No Iterations 0
diagonal:  Solving for p_rgh, Initial residual = 0, Final residual = 0, No Iterations 0
diagonal:  Solving for rho, Initial residual = 0, Final residual = 0, No Iterations 0
time step continuity errors : sum local = 1.34150464e-15, global = 1.34150464e-15, cumulative = 3.067968263e-15
diagonal:  Solving for p_rgh, Initial residual = 0, Final residual = 0, No Iterations 0
diagonal:  Solving for rho, Initial residual = 0, Final residual = 0, No Iterations 0
time step continuity errors : sum local = 1.9164352e-16, global = 1.9164352e-16, cumulative = 3.259611783e-15
diagonal:  Solving for epsilon, Initial residual = 0, Final residual = 0, No Iterations 0
diagonal:  Solving for k, Initial residual = 0, Final residual = 0, No Iterations 0
ExecutionTime = 2.60879 s  ClockTime = 3 s

scalarTransport write:
diagonal:  Solving for s, Initial residual = 0, Final residual = 0, No Iterations 0

phaseScalarTransport: Executing
diagonal:  Solving for phaseScalarTransport:Phi.dummy, Initial residual = 0, Final residual = 0, No Iterations 0
diagonal:  Solving for s.dummy, Initial residual = 0, Final residual = 0, No Iterations 0

Courant Number mean: 0.0863090052 max: 0.0863090052
Time = 0.2s

diagonal:  Solving for rho, Initial residual = 0, Final residual = 0, No Iterations 0
diagonal:  Solving for Ux, Initial residual = 0, Final residual = 0, No Iterations 0
diagonal:  Solving for Uy, Initial residual = 0, Final residual = 0, No Iterations 0
diagonal:  Solving for h, Initial residual = 0, Final residual = 0, No Iterations 0
diagonal:  Solving for p_rgh, Initial residual = 0, Final residual = 0, No Iterations 0
diagonal:  Solving for rho, Initial residual = 0, Final residual = 0, No Iterations 0
time step continuity errors : sum local = 7.665745494e-16, global = -7.665745494e-16, cumulative = 2.493037234e-15
diagonal:  Solving for p_rgh, Initial residual = 0, Final residual = 0, No Iterations 0
diagonal:  Solving for rho, Initial residual = 0, Final residual = 0, No Iterations 0
time step continuity errors : sum local = 5.74930912e-16, global = 5.74930912e-16, cumulative = 3.067968146e-15
diagonal:  Solving for epsilon, Initial residual = 0, Final residual = 0, No Iterations 0
diagonal:  Solving for k, Initial residual = 0, Final residual = 0, No Iterations 0
ExecutionTime = 2.616117 s  ClockTime = 3 s

scalarTransport write:
diagonal:  Solving for s, Initial residual = 0, Final residual = 0, No Iterations 0

phaseScalarTransport: Executing
diagonal:  Solving for phaseScalarTransport:Phi.dummy, Initial residual = 0, Final residual = 0, No Iterations 0
diagonal:  Solving for s.dummy, Initial residual = 0, Final residual = 0, No Iterations 0

Courant Number mean: 0.08630902957 max: 0.08630902957
Time = 0.21s

diagonal:  Solving for rho, Initial residual = 0, Final residual = 0, No Iterations 0
diagonal:  Solving for Ux, Initial residual = 0, Final residual = 0, No Iterations 0
diagonal:  Solving for Uy, Initial residual = 0, Final residual = 0, No Iterations 0
diagonal:  Solving for h, Initial residual = 0, Final residual = 0, No Iterations 0
diagonal:  Solving for p_rgh, Initial residual = 0, Final residual = 0, No Iterations 0
diagonal:  Solving for rho, Initial residual = 0, Final residual = 0, No Iterations 0
time step continuity errors : sum local = 3.832874894e-16, global = -3.832874894e-16, cumulative = 2.684680656e-15
diagonal:  Solving for p_rgh, Initial residual = 0, Final residual = 0, No Iterations 0
diagonal:  Solving for rho, Initial residual = 0, Final residual = 0, No Iterations 0
time step continuity errors : sum local = 5.749312341e-16, global = 5.749312341e-16, cumulative = 3.259611891e-15
diagonal:  Solving for epsilon, Initial residual = 0, Final residual = 0, No Iterations 0
diagonal:  Solving for k, Initial residual = 0, Final residual = 0, No Iterations 0
ExecutionTime = 2.627717 s  ClockTime = 3 s

scalarTransport write:
diagonal:  Solving for s, Initial residual = 0, Final residual = 0, No Iterations 0

phaseScalarTransport: Executing
diagonal:  Solving for phaseScalarTransport:Phi.dummy, Initial residual = 0, Final residual = 0, No Iterations 0
diagonal:  Solving for s.dummy, Initial residual = 0, Final residual = 0, No Iterations 0

Courant Number mean: 0.08630905186 max: 0.08630905186
Time = 0.22s

diagonal:  Solving for rho, Initial residual = 0, Final residual = 0, No Iterations 0
diagonal:  Solving for Ux, Initial residual = 0, Final residual = 0, No Iterations 0
diagonal:  Solving for Uy, Initial residual = 0, Final residual = 0, No Iterations 0
diagonal:  Solving for h, Initial residual = 0, Final residual = 0, No Iterations 0
diagonal:  Solving for p_rgh, Initial residual = 0, Final residual = 0, No Iterations 0
diagonal:  Solving for rho, Initial residual = 0, Final residual = 0, No Iterations 0
time step continuity errors : sum local = 1.341506901e-15, global = -1.341506901e-15, cumulative = 1.91810499e-15
diagonal:  Solving for p_rgh, Initial residual = 0, Final residual = 0, No Iterations 0
diagonal:  Solving for rho, Initial residual = 0, Final residual = 0, No Iterations 0
time step continuity errors : sum local = 7.665753718e-16, global = 7.665753718e-16, cumulative = 2.684680362e-15
diagonal:  Solving for epsilon, Initial residual = 0, Final residual = 0, No Iterations 0
diagonal:  Solving for k, Initial residual = 0, Final residual = 0, No Iterations 0
ExecutionTime = 2.634842 s  ClockTime = 3 s

scalarTransport write:
diagonal:  Solving for s, Initial residual = 0, Final residual = 0, No Iterations 0

phaseScalarTransport: Executing
diagonal:  Solving for phaseScalarTransport:Phi.dummy, Initial residual = 0, Final residual = 0, No Iterations 0
diagonal:  Solving for s.dummy, Initial residual = 0, Final residual = 0, No Iterations 0

Courant Number mean: 0.08630907225 max: 0.08630907225
Time = 0.23s

diagonal:  Solving for rho, Initial residual = 0, Final residual = 0, No Iterations 0
diagonal:  Solving for Ux, Initial residual = 0, Final residual = 0, No Iterations 0
diagonal:  Solving for Uy, Initial residual = 0, Final residual = 0, No Iterations 0
diagonal:  Solving for h, Initial residual = 0, Final residual = 0, No Iterations 0
diagonal:  Solving for p_rgh, Initial residual = 0, Final residual = 0, No Iterations 0
diagonal:  Solving for rho, Initial residual = 0, Final residual = 0, No Iterations 0
time step continuity errors : sum local = 0, global = 0, cumulative = 2.684680362e-15
diagonal:  Solving for p_rgh, Initial residual = 0, Final residual = 0, No Iterations 0
diagonal:  Solving for rho, Initial residual = 0, Final residual = 0, No Iterations 0
time step continuity errors : sum local = 1.34150753e-15, global = 1.34150753e-15, cumulative = 4.026187891e-15
diagonal:  Solving for epsilon, Initial residual = 0, Final residual = 0, No Iterations 0
diagonal:  Solving for k, Initial residual = 0, Final residual = 0, No Iterations 0
ExecutionTime = 2.639645 s  ClockTime = 3 s

scalarTransport write:
diagonal:  Solving for s, Initial residual = 0, Final residual = 0, No Iterations 0

phaseScalarTransport: Executing
diagonal:  Solving for phaseScalarTransport:Phi.dummy, Initial residual = 0, Final residual = 0, No Iterations 0
diagonal:  Solving for s.dummy, Initial residual = 0, Final residual = 0, No Iterations 0

Courant Number mean: 0.08630909091 max: 0.08630909091
Time = 0.24s

diagonal:  Solving for rho, Initial residual = 0, Final residual = 0, No Iterations 0
diagonal:  Solving for Ux, Initial residual = 0, Final residual = 0, No Iterations 0
diagonal:  Solving for Uy, Initial residual = 0, Final residual = 0, No Iterations 0
diagonal:  Solving for h, Initial residual = 0, Final residual = 0, No Iterations 0
diagonal:  Solving for p_rgh, Initial residual = 0, Final residual = 0, No Iterations 0
diagonal:  Solving for rho, Initial residual = 0, Final residual = 0, No Iterations 0
time step continuity errors : sum local = 1.341508105e-15, global = -1.341508105e-15, cumulative = 2.684679786e-15
diagonal:  Solving for p_rgh, Initial residual = 0, Final residual = 0, No Iterations 0
diagonal:  Solving for rho, Initial residual = 0, Final residual = 0, No Iterations 0
time step continuity errors : sum local = 1.53315212e-15, global = 1.53315212e-15, cumulative = 4.217831906e-15
diagonal:  Solving for epsilon, Initial residual = 0, Final residual = 0, No Iterations 0
diagonal:  Solving for k, Initial residual = 0, Final residual = 0, No Iterations 0
ExecutionTime = 2.645804 s  ClockTime = 3 s

scalarTransport write:
diagonal:  Solving for s, Initial residual = 0, Final residual = 0, No Iterations 0

phaseScalarTransport: Executing
diagonal:  Solving for phaseScalarTransport:Phi.dummy, Initial residual = 0, Final residual = 0, No Iterations 0
diagonal:  Solving for s.dummy, Initial residual = 0, Final residual = 0, No Iterations 0

Courant Number mean: 0.08630910798 max: 0.08630910798
Time = 0.25s

diagonal:  Solving for rho, Initial residual = 0, Final residual = 0, No Iterations 0
diagonal:  Solving for Ux, Initial residual = 0, Final residual = 0, No Iterations 0
diagonal:  Solving for Uy, Initial residual = 0, Final residual = 0, No Iterations 0
diagonal:  Solving for h, Initial residual = 0, Final residual = 0, No Iterations 0
diagonal:  Solving for p_rgh, Initial residual = 0, Final residual = 0, No Iterations 0
diagonal:  Solving for rho, Initial residual = 0, Final residual = 0, No Iterations 0
time step continuity errors : sum local = 0, global = 0, cumulative = 4.217831906e-15
diagonal:  Solving for p_rgh, Initial residual = 0, Final residual = 0, No Iterations 0
diagonal:  Solving for rho, Initial residual = 0, Final residual = 0, No Iterations 0
time step continuity errors : sum local = 1.916440902e-15, global = 1.916440902e-15, cumulative = 6.134272809e-15
diagonal:  Solving for epsilon, Initial residual = 0, Final residual = 0, No Iterations 0
diagonal:  Solving for k, Initial residual = 0, Final residual = 0, No Iterations 0
ExecutionTime = 2.650178 s  ClockTime = 3 s

scalarTransport write:
diagonal:  Solving for s, Initial residual = 0, Final residual = 0, No Iterations 0

phaseScalarTransport: Executing
diagonal:  Solving for phaseScalarTransport:Phi.dummy, Initial residual = 0, Final residual = 0, No Iterations 0
diagonal:  Solving for s.dummy, Initial residual = 0, Final residual = 0, No Iterations 0

Courant Number mean: 0.0863091236 max: 0.0863091236
Time = 0.26s

diagonal:  Solving for rho, Initial residual = 0, Final residual = 0, No Iterations 0
diagonal:  Solving for Ux, Initial residual = 0, Final residual = 0, No Iterations 0
diagonal:  Solving for Uy, Initial residual = 0, Final residual = 0, No Iterations 0
diagonal:  Solving for h, Initial residual = 0, Final residual = 0, No Iterations 0
diagonal:  Solving for p_rgh, Initial residual = 0, Final residual = 0, No Iterations 0
diagonal:  Solving for rho, Initial residual = 0, Final residual = 0, No Iterations 0
time step continuity errors : sum local = 0, global = 0, cumulative = 6.134272809e-15
diagonal:  Solving for p_rgh, Initial residual = 0, Final residual = 0, No Iterations 0
diagonal:  Solving for rho, Initial residual = 0, Final residual = 0, No Iterations 0
time step continuity errors : sum local = 1.916441591e-16, global = -1.916441591e-16, cumulative = 5.94262865e-15
diagonal:  Solving for epsilon, Initial residual = 0, Final residual = 0, No Iterations 0
diagonal:  Solving for k, Initial residual = 0, Final residual = 0, No Iterations 0
ExecutionTime = 2.655267 s  ClockTime = 3 s

scalarTransport write:
diagonal:  Solving for s, Initial residual = 0, Final residual = 0, No Iterations 0

phaseScalarTransport: Executing
diagonal:  Solving for phaseScalarTransport:Phi.dummy, Initial residual = 0, Final residual = 0, No Iterations 0
diagonal:  Solving for s.dummy, Initial residual = 0, Final residual = 0, No Iterations 0

Courant Number mean: 0.08630913789 max: 0.08630913789
Time = 0.27s

diagonal:  Solving for rho, Initial residual = 0, Final residual = 0, No Iterations 0
diagonal:  Solving for Ux, Initial residual = 0, Final residual = 0, No Iterations 0
diagonal:  Solving for Uy, Initial residual = 0, Final residual = 0, No Iterations 0
diagonal:  Solving for h, Initial residual = 0, Final residual = 0, No Iterations 0
diagonal:  Solving for p_rgh, Initial residual = 0, Final residual = 0, No Iterations 0
diagonal:  Solving for rho, Initial residual = 0, Final residual = 0, No Iterations 0
time step continuity errors : sum local = 2.683019108e-15, global = -2.683019108e-15, cumulative = 3.259609542e-15
diagonal:  Solving for p_rgh, Initial residual = 0, Final residual = 0, No Iterations 0
diagonal:  Solving for rho, Initial residual = 0, Final residual = 0, No Iterations 0
time step continuity errors : sum local = 1.91644222e-16, global = -1.91644222e-16, cumulative = 3.06796532e-15
diagonal:  Solving for epsilon, Initial residual = 0, Final residual = 0, No Iterations 0
diagonal:  Solving for k, Initial residual = 0, Final residual = 0, No Iterations 0
ExecutionTime = 2.661261 s  ClockTime = 3 s

scalarTransport write:
diagonal:  Solving for s, Initial residual = 0, Final residual = 0, No Iterations 0

phaseScalarTransport: Executing
diagonal:  Solving for phaseScalarTransport:Phi.dummy, Initial residual = 0, Final residual = 0, No Iterations 0
diagonal:  Solving for s.dummy, Initial residual = 0, Final residual = 0, No Iterations 0

Courant Number mean: 0.08630915096 max: 0.08630915096
Time = 0.28s

diagonal:  Solving for rho, Initial residual = 0, Final residual = 0, No Iterations 0
diagonal:  Solving for Ux, Initial residual = 0, Final residual = 0, No Iterations 0
diagonal:  Solving for Uy, Initial residual = 0, Final residual = 0, No Iterations 0
diagonal:  Solving for h, Initial residual = 0, Final residual = 0, No Iterations 0
diagonal:  Solving for p_rgh, Initial residual = 0, Final residual = 0, No Iterations 0
diagonal:  Solving for rho, Initial residual = 0, Final residual = 0, No Iterations 0
time step continuity errors : sum local = 7.665771184e-16, global = -7.665771184e-16, cumulative = 2.301388201e-15
diagonal:  Solving for p_rgh, Initial residual = 0, Final residual = 0, No Iterations 0
diagonal:  Solving for rho, Initial residual = 0, Final residual = 0, No Iterations 0
time step continuity errors : sum local = 1.916442796e-16, global = -1.916442796e-16, cumulative = 2.109743922e-15
diagonal:  Solving for epsilon, Initial residual = 0, Final residual = 0, No Iterations 0
diagonal:  Solving for k, Initial residual = 0, Final residual = 0, No Iterations 0
ExecutionTime = 2.666336 s  ClockTime = 3 s

scalarTransport write:
diagonal:  Solving for s, Initial residual = 0, Final residual = 0, No Iterations 0

phaseScalarTransport: Executing
diagonal:  Solving for phaseScalarTransport:Phi.dummy, Initial residual = 0, Final residual = 0, No Iterations 0
diagonal:  Solving for s.dummy, Initial residual = 0, Final residual = 0, No Iterations 0

Courant Number mean: 0.08630916291 max: 0.08630916291
Time = 0.29s

diagonal:  Solving for rho, Initial residual = 0, Final residual = 0, No Iterations 0
diagonal:  Solving for Ux, Initial residual = 0, Final residual = 0, No Iterations 0
diagonal:  Solving for Uy, Initial residual = 0, Final residual = 0, No Iterations 0
diagonal:  Solving for h, Initial residual = 0, Final residual = 0, No Iterations 0
diagonal:  Solving for p_rgh, Initial residual = 0, Final residual = 0, No Iterations 0
diagonal:  Solving for rho, Initial residual = 0, Final residual = 0, No Iterations 0
time step continuity errors : sum local = 9.582216615e-16, global = 9.582216615e-16, cumulative = 3.067965583e-15
diagonal:  Solving for p_rgh, Initial residual = 0, Final residual = 0, No Iterations 0
diagonal:  Solving for rho, Initial residual = 0, Final residual = 0, No Iterations 0
time step continuity errors : sum local = 7.665773292e-16, global = 7.665773292e-16, cumulative = 3.834542912e-15
diagonal:  Solving for epsilon, Initial residual = 0, Final residual = 0, No Iterations 0
diagonal:  Solving for k, Initial residual = 0, Final residual = 0, No Iterations 0
ExecutionTime = 2.67228 s  ClockTime = 3 s

scalarTransport write:
diagonal:  Solving for s, Initial residual = 0, Final residual = 0, No Iterations 0

phaseScalarTransport: Executing
diagonal:  Solving for phaseScalarTransport:Phi.dummy, Initial residual = 0, Final residual = 0, No Iterations 0
diagonal:  Solving for s.dummy, Initial residual = 0, Final residual = 0, No Iterations 0

Courant Number mean: 0.08630917385 max: 0.08630917385
Time = 0.3s

diagonal:  Solving for rho, Initial residual = 0, Final residual = 0, No Iterations 0
diagonal:  Solving for Ux, Initial residual = 0, Final residual = 0, No Iterations 0
diagonal:  Solving for Uy, Initial residual = 0, Final residual = 0, No Iterations 0
diagonal:  Solving for h, Initial residual = 0, Final residual = 0, No Iterations 0
diagonal:  Solving for p_rgh, Initial residual = 0, Final residual = 0, No Iterations 0
diagonal:  Solving for rho, Initial residual = 0, Final residual = 0, No Iterations 0
time step continuity errors : sum local = 7.66577522e-16, global = -7.66577522e-16, cumulative = 3.06796539e-15
diagonal:  Solving for p_rgh, Initial residual = 0, Final residual = 0, No Iterations 0
diagonal:  Solving for rho, Initial residual = 0, Final residual = 0, No Iterations 0
time step continuity errors : sum local = 1.533155044e-15, global = 1.533155044e-15, cumulative = 4.601120434e-15
diagonal:  Solving for epsilon, Initial residual = 0, Final residual = 0, No Iterations 0
diagonal:  Solving for k, Initial residual = 0, Final residual = 0, No Iterations 0
ExecutionTime = 2.67683 s  ClockTime = 3 s

scalarTransport write:
diagonal:  Solving for s, Initial residual = 0, Final residual = 0, No Iterations 0

phaseScalarTransport: Executing
diagonal:  Solving for phaseScalarTransport:Phi.dummy, Initial residual = 0, Final residual = 0, No Iterations 0
diagonal:  Solving for s.dummy, Initial residual = 0, Final residual = 0, No Iterations 0

Courant Number mean: 0.08630918386 max: 0.08630918386
Time = 0.31s

diagonal:  Solving for rho, Initial residual = 0, Final residual = 0, No Iterations 0
diagonal:  Solving for Ux, Initial residual = 0, Final residual = 0, No Iterations 0
diagonal:  Solving for Uy, Initial residual = 0, Final residual = 0, No Iterations 0
diagonal:  Solving for h, Initial residual = 0, Final residual = 0, No Iterations 0
diagonal:  Solving for p_rgh, Initial residual = 0, Final residual = 0, No Iterations 0
diagonal:  Solving for rho, Initial residual = 0, Final residual = 0, No Iterations 0
time step continuity errors : sum local = 3.832888492e-16, global = -3.832888492e-16, cumulative = 4.217831585e-15
diagonal:  Solving for p_rgh, Initial residual = 0, Final residual = 0, No Iterations 0
diagonal:  Solving for rho, Initial residual = 0, Final residual = 0, No Iterations 0
time step continuity errors : sum local = 9.58222123e-16, global = -9.58222123e-16, cumulative = 3.259609462e-15
diagonal:  Solving for epsilon, Initial residual = 0, Final residual = 0, No Iterations 0
diagonal:  Solving for k, Initial residual = 0, Final residual = 0, No Iterations 0
ExecutionTime = 2.682276 s  ClockTime = 3 s

scalarTransport write:
diagonal:  Solving for s, Initial residual = 0, Final residual = 0, No Iterations 0

phaseScalarTransport: Executing
diagonal:  Solving for phaseScalarTransport:Phi.dummy, Initial residual = 0, Final residual = 0, No Iterations 0
diagonal:  Solving for s.dummy, Initial residual = 0, Final residual = 0, No Iterations 0

Courant Number mean: 0.08630919302 max: 0.08630919302
Time = 0.32s

diagonal:  Solving for rho, Initial residual = 0, Final residual = 0, No Iterations 0
diagonal:  Solving for Ux, Initial residual = 0, Final residual = 0, No Iterations 0
diagonal:  Solving for Uy, Initial residual = 0, Final residual = 0, No Iterations 0
diagonal:  Solving for h, Initial residual = 0, Final residual = 0, No Iterations 0
diagonal:  Solving for p_rgh, Initial residual = 0, Final residual = 0, No Iterations 0
diagonal:  Solving for rho, Initial residual = 0, Final residual = 0, No Iterations 0
time step continuity errors : sum local = 2.108089114e-15, global = -2.108089114e-15, cumulative = 1.151520348e-15
diagonal:  Solving for p_rgh, Initial residual = 0, Final residual = 0, No Iterations 0
diagonal:  Solving for rho, Initial residual = 0, Final residual = 0, No Iterations 0
time step continuity errors : sum local = 5.749333948e-16, global = 5.749333948e-16, cumulative = 1.726453743e-15
diagonal:  Solving for epsilon, Initial residual = 0, Final residual = 0, No Iterations 0
diagonal:  Solving for k, Initial residual = 0, Final residual = 0, No Iterations 0
ExecutionTime = 2.690817 s  ClockTime = 3 s

scalarTransport write:
diagonal:  Solving for s, Initial residual = 0, Final residual = 0, No Iterations 0

phaseScalarTransport: Executing
diagonal:  Solving for phaseScalarTransport:Phi.dummy, Initial residual = 0, Final residual = 0, No Iterations 0
diagonal:  Solving for s.dummy, Initial residual = 0, Final residual = 0, No Iterations 0

Courant Number mean: 0.0863092014 max: 0.0863092014
Time = 0.33s

diagonal:  Solving for rho, Initial residual = 0, Final residual = 0, No Iterations 0
diagonal:  Solving for Ux, Initial residual = 0, Final residual = 0, No Iterations 0
diagonal:  Solving for Uy, Initial residual = 0, Final residual = 0, No Iterations 0
diagonal:  Solving for h, Initial residual = 0, Final residual = 0, No Iterations 0
diagonal:  Solving for p_rgh, Initial residual = 0, Final residual = 0, No Iterations 0
diagonal:  Solving for rho, Initial residual = 0, Final residual = 0, No Iterations 0
time step continuity errors : sum local = 1.916445019e-16, global = -1.916445019e-16, cumulative = 1.534809241e-15
diagonal:  Solving for p_rgh, Initial residual = 0, Final residual = 0, No Iterations 0
diagonal:  Solving for rho, Initial residual = 0, Final residual = 0, No Iterations 0
time step continuity errors : sum local = 1.533156015e-15, global = -1.533156015e-15, cumulative = 1.653225991e-18
diagonal:  Solving for epsilon, Initial residual = 0, Final residual = 0, No Iterations 0
diagonal:  Solving for k, Initial residual = 0, Final residual = 0, No Iterations 0
ExecutionTime = 2.69687 s  ClockTime = 3 s

scalarTransport write:
diagonal:  Solving for s, Initial residual = 0, Final residual = 0, No Iterations 0

phaseScalarTransport: Executing
diagonal:  Solving for phaseScalarTransport:Phi.dummy, Initial residual = 0, Final residual = 0, No Iterations 0
diagonal:  Solving for s.dummy, Initial residual = 0, Final residual = 0, No Iterations 0

Courant Number mean: 0.08630920906 max: 0.08630920906
Time = 0.34s

diagonal:  Solving for rho, Initial residual = 0, Final residual = 0, No Iterations 0
diagonal:  Solving for Ux, Initial residual = 0, Final residual = 0, No Iterations 0
diagonal:  Solving for Uy, Initial residual = 0, Final residual = 0, No Iterations 0
diagonal:  Solving for h, Initial residual = 0, Final residual = 0, No Iterations 0
diagonal:  Solving for p_rgh, Initial residual = 0, Final residual = 0, No Iterations 0
diagonal:  Solving for rho, Initial residual = 0, Final residual = 0, No Iterations 0
time step continuity errors : sum local = 9.582226781e-16, global = 9.582226781e-16, cumulative = 9.598759041e-16
diagonal:  Solving for p_rgh, Initial residual = 0, Final residual = 0, No Iterations 0
diagonal:  Solving for rho, Initial residual = 0, Final residual = 0, No Iterations 0
time step continuity errors : sum local = 0, global = 0, cumulative = 9.598759041e-16
diagonal:  Solving for epsilon, Initial residual = 0, Final residual = 0, No Iterations 0
diagonal:  Solving for k, Initial residual = 0, Final residual = 0, No Iterations 0
ExecutionTime = 2.703163 s  ClockTime = 3 s

scalarTransport write:
diagonal:  Solving for s, Initial residual = 0, Final residual = 0, No Iterations 0

phaseScalarTransport: Executing
diagonal:  Solving for phaseScalarTransport:Phi.dummy, Initial residual = 0, Final residual = 0, No Iterations 0
diagonal:  Solving for s.dummy, Initial residual = 0, Final residual = 0, No Iterations 0

Courant Number mean: 0.08630921607 max: 0.08630921607
Time = 0.35s

diagonal:  Solving for rho, Initial residual = 0, Final residual = 0, No Iterations 0
diagonal:  Solving for Ux, Initial residual = 0, Final residual = 0, No Iterations 0
diagonal:  Solving for Uy, Initial residual = 0, Final residual = 0, No Iterations 0
diagonal:  Solving for h, Initial residual = 0, Final residual = 0, No Iterations 0
diagonal:  Solving for p_rgh, Initial residual = 0, Final residual = 0, No Iterations 0
diagonal:  Solving for rho, Initial residual = 0, Final residual = 0, No Iterations 0
time step continuity errors : sum local = 1.916445665e-16, global = 1.916445665e-16, cumulative = 1.151520471e-15
diagonal:  Solving for p_rgh, Initial residual = 0, Final residual = 0, No Iterations 0
diagonal:  Solving for rho, Initial residual = 0, Final residual = 0, No Iterations 0
time step continuity errors : sum local = 3.83289133e-16, global = 3.83289133e-16, cumulative = 1.534809604e-15
diagonal:  Solving for epsilon, Initial residual = 0, Final residual = 0, No Iterations 0
diagonal:  Solving for k, Initial residual = 0, Final residual = 0, No Iterations 0
ExecutionTime = 2.707464 s  ClockTime = 3 s

scalarTransport write:
diagonal:  Solving for s, Initial residual = 0, Final residual = 0, No Iterations 0

phaseScalarTransport: Executing
diagonal:  Solving for phaseScalarTransport:Phi.dummy, Initial residual = 0, Final residual = 0, No Iterations 0
diagonal:  Solving for s.dummy, Initial residual = 0, Final residual = 0, No Iterations 0

Courant Number mean: 0.08630922248 max: 0.08630922248
Time = 0.36s

diagonal:  Solving for rho, Initial residual = 0, Final residual = 0, No Iterations 0
diagonal:  Solving for Ux, Initial residual = 0, Final residual = 0, No Iterations 0
diagonal:  Solving for Uy, Initial residual = 0, Final residual = 0, No Iterations 0
diagonal:  Solving for h, Initial residual = 0, Final residual = 0, No Iterations 0
diagonal:  Solving for p_rgh, Initial residual = 0, Final residual = 0, No Iterations 0
diagonal:  Solving for rho, Initial residual = 0, Final residual = 0, No Iterations 0
time step continuity errors : sum local = 2.299735137e-15, global = -2.299735137e-15, cumulative = -7.649255337e-16
diagonal:  Solving for p_rgh, Initial residual = 0, Final residual = 0, No Iterations 0
diagonal:  Solving for rho, Initial residual = 0, Final residual = 0, No Iterations 0
time step continuity errors : sum local = 3.832891895e-16, global = -3.832891895e-16, cumulative = -1.148214723e-15
diagonal:  Solving for epsilon, Initial residual = 0, Final residual = 0, No Iterations 0
diagonal:  Solving for k, Initial residual = 0, Final residual = 0, No Iterations 0
ExecutionTime = 2.713836 s  ClockTime = 3 s

scalarTransport write:
diagonal:  Solving for s, Initial residual = 0, Final residual = 0, No Iterations 0

phaseScalarTransport: Executing
diagonal:  Solving for phaseScalarTransport:Phi.dummy, Initial residual = 0, Final residual = 0, No Iterations 0
diagonal:  Solving for s.dummy, Initial residual = 0, Final residual = 0, No Iterations 0

Courant Number mean: 0.08630922835 max: 0.08630922835
Time = 0.37s

diagonal:  Solving for rho, Initial residual = 0, Final residual = 0, No Iterations 0
diagonal:  Solving for Ux, Initial residual = 0, Final residual = 0, No Iterations 0
diagonal:  Solving for Uy, Initial residual = 0, Final residual = 0, No Iterations 0
diagonal:  Solving for h, Initial residual = 0, Final residual = 0, No Iterations 0
diagonal:  Solving for p_rgh, Initial residual = 0, Final residual = 0, No Iterations 0
diagonal:  Solving for rho, Initial residual = 0, Final residual = 0, No Iterations 0
time step continuity errors : sum local = 1.724801586e-15, global = -1.724801586e-15, cumulative = -2.873016309e-15
diagonal:  Solving for p_rgh, Initial residual = 0, Final residual = 0, No Iterations 0
diagonal:  Solving for rho, Initial residual = 0, Final residual = 0, No Iterations 0
time step continuity errors : sum local = 9.582231031e-16, global = 9.582231031e-16, cumulative = -1.914793206e-15
diagonal:  Solving for epsilon, Initial residual = 0, Final residual = 0, No Iterations 0
diagonal:  Solving for k, Initial residual = 0, Final residual = 0, No Iterations 0
ExecutionTime = 2.729945 s  ClockTime = 3 s

scalarTransport write:
diagonal:  Solving for s, Initial residual = 0, Final residual = 0, No Iterations 0

phaseScalarTransport: Executing
diagonal:  Solving for phaseScalarTransport:Phi.dummy, Initial residual = 0, Final residual = 0, No Iterations 0
diagonal:  Solving for s.dummy, Initial residual = 0, Final residual = 0, No Iterations 0

Courant Number mean: 0.08630923372 max: 0.08630923372
Time = 0.38s

diagonal:  Solving for rho, Initial residual = 0, Final residual = 0, No Iterations 0
diagonal:  Solving for Ux, Initial residual = 0, Final residual = 0, No Iterations 0
diagonal:  Solving for Uy, Initial residual = 0, Final residual = 0, No Iterations 0
diagonal:  Solving for h, Initial residual = 0, Final residual = 0, No Iterations 0
diagonal:  Solving for p_rgh, Initial residual = 0, Final residual = 0, No Iterations 0
diagonal:  Solving for rho, Initial residual = 0, Final residual = 0, No Iterations 0
time step continuity errors : sum local = 7.665785771e-16, global = -7.665785771e-16, cumulative = -2.681371783e-15
diagonal:  Solving for p_rgh, Initial residual = 0, Final residual = 0, No Iterations 0
diagonal:  Solving for rho, Initial residual = 0, Final residual = 0, No Iterations 0
time step continuity errors : sum local = 1.149867866e-15, global = 1.149867866e-15, cumulative = -1.531503917e-15
diagonal:  Solving for epsilon, Initial residual = 0, Final residual = 0, No Iterations 0
diagonal:  Solving for k, Initial residual = 0, Final residual = 0, No Iterations 0
ExecutionTime = 2.735531 s  ClockTime = 3 s

scalarTransport write:
diagonal:  Solving for s, Initial residual = 0, Final residual = 0, No Iterations 0

phaseScalarTransport: Executing
diagonal:  Solving for phaseScalarTransport:Phi.dummy, Initial residual = 0, Final residual = 0, No Iterations 0
diagonal:  Solving for s.dummy, Initial residual = 0, Final residual = 0, No Iterations 0

Courant Number mean: 0.08630923863 max: 0.08630923863
Time = 0.39s

diagonal:  Solving for rho, Initial residual = 0, Final residual = 0, No Iterations 0
diagonal:  Solving for Ux, Initial residual = 0, Final residual = 0, No Iterations 0
diagonal:  Solving for Uy, Initial residual = 0, Final residual = 0, No Iterations 0
diagonal:  Solving for h, Initial residual = 0, Final residual = 0, No Iterations 0
diagonal:  Solving for p_rgh, Initial residual = 0, Final residual = 0, No Iterations 0
diagonal:  Solving for rho, Initial residual = 0, Final residual = 0, No Iterations 0
time step continuity errors : sum local = 2.299735991e-15, global = 2.299735991e-15, cumulative = 7.682320739e-16
diagonal:  Solving for p_rgh, Initial residual = 0, Final residual = 0, No Iterations 0
diagonal:  Solving for rho, Initial residual = 0, Final residual = 0, No Iterations 0
time step continuity errors : sum local = 0, global = 0, cumulative = 7.682320739e-16
diagonal:  Solving for epsilon, Initial residual = 0, Final residual = 0, No Iterations 0
diagonal:  Solving for k, Initial residual = 0, Final residual = 0, No Iterations 0
ExecutionTime = 2.73874 s  ClockTime = 3 s

scalarTransport write:
diagonal:  Solving for s, Initial residual = 0, Final residual = 0, No Iterations 0

phaseScalarTransport: Executing
diagonal:  Solving for phaseScalarTransport:Phi.dummy, Initial residual = 0, Final residual = 0, No Iterations 0
diagonal:  Solving for s.dummy, Initial residual = 0, Final residual = 0, No Iterations 0

Courant Number mean: 0.08630924313 max: 0.08630924313
Time = 0.4s

diagonal:  Solving for rho, Initial residual = 0, Final residual = 0, No Iterations 0
diagonal:  Solving for Ux, Initial residual = 0, Final residual = 0, No Iterations 0
diagonal:  Solving for Uy, Initial residual = 0, Final residual = 0, No Iterations 0
diagonal:  Solving for h, Initial residual = 0, Final residual = 0, No Iterations 0
diagonal:  Solving for p_rgh, Initial residual = 0, Final residual = 0, No Iterations 0
diagonal:  Solving for rho, Initial residual = 0, Final residual = 0, No Iterations 0
time step continuity errors : sum local = 1.916446857e-16, global = 1.916446857e-16, cumulative = 9.598767597e-16
diagonal:  Solving for p_rgh, Initial residual = 0, Final residual = 0, No Iterations 0
diagonal:  Solving for rho, Initial residual = 0, Final residual = 0, No Iterations 0
time step continuity errors : sum local = 1.916446857e-15, global = -1.916446857e-15, cumulative = -9.565700976e-16
diagonal:  Solving for epsilon, Initial residual = 0, Final residual = 0, No Iterations 0
diagonal:  Solving for k, Initial residual = 0, Final residual = 0, No Iterations 0
ExecutionTime = 2.743361 s  ClockTime = 3 s

scalarTransport write:
diagonal:  Solving for s, Initial residual = 0, Final residual = 0, No Iterations 0

phaseScalarTransport: Executing
diagonal:  Solving for phaseScalarTransport:Phi.dummy, Initial residual = 0, Final residual = 0, No Iterations 0
diagonal:  Solving for s.dummy, Initial residual = 0, Final residual = 0, No Iterations 0

Courant Number mean: 0.08630924724 max: 0.08630924724
Time = 0.41s

diagonal:  Solving for rho, Initial residual = 0, Final residual = 0, No Iterations 0
diagonal:  Solving for Ux, Initial residual = 0, Final residual = 0, No Iterations 0
diagonal:  Solving for Uy, Initial residual = 0, Final residual = 0, No Iterations 0
diagonal:  Solving for h, Initial residual = 0, Final residual = 0, No Iterations 0
diagonal:  Solving for p_rgh, Initial residual = 0, Final residual = 0, No Iterations 0
diagonal:  Solving for rho, Initial residual = 0, Final residual = 0, No Iterations 0
time step continuity errors : sum local = 0, global = 0, cumulative = -9.565700976e-16
diagonal:  Solving for p_rgh, Initial residual = 0, Final residual = 0, No Iterations 0
diagonal:  Solving for rho, Initial residual = 0, Final residual = 0, No Iterations 0
time step continuity errors : sum local = 2.108091742e-15, global = -2.108091742e-15, cumulative = -3.06466184e-15
diagonal:  Solving for epsilon, Initial residual = 0, Final residual = 0, No Iterations 0
diagonal:  Solving for k, Initial residual = 0, Final residual = 0, No Iterations 0
ExecutionTime = 2.746936 s  ClockTime = 3 s

scalarTransport write:
diagonal:  Solving for s, Initial residual = 0, Final residual = 0, No Iterations 0

phaseScalarTransport: Executing
diagonal:  Solving for phaseScalarTransport:Phi.dummy, Initial residual = 0, Final residual = 0, No Iterations 0
diagonal:  Solving for s.dummy, Initial residual = 0, Final residual = 0, No Iterations 0

Courant Number mean: 0.086309251 max: 0.086309251
Time = 0.42s

diagonal:  Solving for rho, Initial residual = 0, Final residual = 0, No Iterations 0
diagonal:  Solving for Ux, Initial residual = 0, Final residual = 0, No Iterations 0
diagonal:  Solving for Uy, Initial residual = 0, Final residual = 0, No Iterations 0
diagonal:  Solving for h, Initial residual = 0, Final residual = 0, No Iterations 0
diagonal:  Solving for p_rgh, Initial residual = 0, Final residual = 0, No Iterations 0
diagonal:  Solving for rho, Initial residual = 0, Final residual = 0, No Iterations 0
time step continuity errors : sum local = 1.916447204e-16, global = 1.916447204e-16, cumulative = -2.873017119e-15
diagonal:  Solving for p_rgh, Initial residual = 0, Final residual = 0, No Iterations 0
diagonal:  Solving for rho, Initial residual = 0, Final residual = 0, No Iterations 0
time step continuity errors : sum local = 1.916447204e-15, global = -1.916447204e-15, cumulative = -4.789464323e-15
diagonal:  Solving for epsilon, Initial residual = 0, Final residual = 0, No Iterations 0
diagonal:  Solving for k, Initial residual = 0, Final residual = 0, No Iterations 0
ExecutionTime = 2.749983 s  ClockTime = 3 s

scalarTransport write:
diagonal:  Solving for s, Initial residual = 0, Final residual = 0, No Iterations 0

phaseScalarTransport: Executing
diagonal:  Solving for phaseScalarTransport:Phi.dummy, Initial residual = 0, Final residual = 0, No Iterations 0
diagonal:  Solving for s.dummy, Initial residual = 0, Final residual = 0, No Iterations 0

Courant Number mean: 0.08630925444 max: 0.08630925444
Time = 0.43s

diagonal:  Solving for rho, Initial residual = 0, Final residual = 0, No Iterations 0
diagonal:  Solving for Ux, Initial residual = 0, Final residual = 0, No Iterations 0
diagonal:  Solving for Uy, Initial residual = 0, Final residual = 0, No Iterations 0
diagonal:  Solving for h, Initial residual = 0, Final residual = 0, No Iterations 0
diagonal:  Solving for p_rgh, Initial residual = 0, Final residual = 0, No Iterations 0
diagonal:  Solving for rho, Initial residual = 0, Final residual = 0, No Iterations 0
time step continuity errors : sum local = 2.683026298e-15, global = -2.683026298e-15, cumulative = -7.472490621e-15
diagonal:  Solving for p_rgh, Initial residual = 0, Final residual = 0, No Iterations 0
diagonal:  Solving for rho, Initial residual = 0, Final residual = 0, No Iterations 0
time step continuity errors : sum local = 1.916447356e-16, global = 1.916447356e-16, cumulative = -7.280845886e-15
diagonal:  Solving for epsilon, Initial residual = 0, Final residual = 0, No Iterations 0
diagonal:  Solving for k, Initial residual = 0, Final residual = 0, No Iterations 0
ExecutionTime = 2.753298 s  ClockTime = 3 s

scalarTransport write:
diagonal:  Solving for s, Initial residual = 0, Final residual = 0, No Iterations 0

phaseScalarTransport: Executing
diagonal:  Solving for phaseScalarTransport:Phi.dummy, Initial residual = 0, Final residual = 0, No Iterations 0
diagonal:  Solving for s.dummy, Initial residual = 0, Final residual = 0, No Iterations 0

Courant Number mean: 0.08630925758 max: 0.08630925758
Time = 0.44s

diagonal:  Solving for rho, Initial residual = 0, Final residual = 0, No Iterations 0
diagonal:  Solving for Ux, Initial residual = 0, Final residual = 0, No Iterations 0
diagonal:  Solving for Uy, Initial residual = 0, Final residual = 0, No Iterations 0
diagonal:  Solving for h, Initial residual = 0, Final residual = 0, No Iterations 0
diagonal:  Solving for p_rgh, Initial residual = 0, Final residual = 0, No Iterations 0
diagonal:  Solving for rho, Initial residual = 0, Final residual = 0, No Iterations 0
time step continuity errors : sum local = 2.874671241e-15, global = -2.874671241e-15, cumulative = -1.015551713e-14
diagonal:  Solving for p_rgh, Initial residual = 0, Final residual = 0, No Iterations 0
diagonal:  Solving for rho, Initial residual = 0, Final residual = 0, No Iterations 0
time step continuity errors : sum local = 5.749342483e-16, global = 5.749342483e-16, cumulative = -9.580582879e-15
diagonal:  Solving for epsilon, Initial residual = 0, Final residual = 0, No Iterations 0
diagonal:  Solving for k, Initial residual = 0, Final residual = 0, No Iterations 0
ExecutionTime = 2.756482 s  ClockTime = 3 s

scalarTransport write:
diagonal:  Solving for s, Initial residual = 0, Final residual = 0, No Iterations 0

phaseScalarTransport: Executing
diagonal:  Solving for phaseScalarTransport:Phi.dummy, Initial residual = 0, Final residual = 0, No Iterations 0
diagonal:  Solving for s.dummy, Initial residual = 0, Final residual = 0, No Iterations 0

Courant Number mean: 0.08630926046 max: 0.08630926046
Time = 0.45s

diagonal:  Solving for rho, Initial residual = 0, Final residual = 0, No Iterations 0
diagonal:  Solving for Ux, Initial residual = 0, Final residual = 0, No Iterations 0
diagonal:  Solving for Uy, Initial residual = 0, Final residual = 0, No Iterations 0
diagonal:  Solving for h, Initial residual = 0, Final residual = 0, No Iterations 0
diagonal:  Solving for p_rgh, Initial residual = 0, Final residual = 0, No Iterations 0
diagonal:  Solving for rho, Initial residual = 0, Final residual = 0, No Iterations 0
time step continuity errors : sum local = 1.533158097e-15, global = -1.533158097e-15, cumulative = -1.111374098e-14
diagonal:  Solving for p_rgh, Initial residual = 0, Final residual = 0, No Iterations 0
diagonal:  Solving for rho, Initial residual = 0, Final residual = 0, No Iterations 0
time step continuity errors : sum local = 1.149868573e-15, global = 1.149868573e-15, cumulative = -9.963872403e-15
diagonal:  Solving for epsilon, Initial residual = 0, Final residual = 0, No Iterations 0
diagonal:  Solving for k, Initial residual = 0, Final residual = 0, No Iterations 0
ExecutionTime = 2.760641 s  ClockTime = 3 s

scalarTransport write:
diagonal:  Solving for s, Initial residual = 0, Final residual = 0, No Iterations 0

phaseScalarTransport: Executing
diagonal:  Solving for phaseScalarTransport:Phi.dummy, Initial residual = 0, Final residual = 0, No Iterations 0
diagonal:  Solving for s.dummy, Initial residual = 0, Final residual = 0, No Iterations 0

Courant Number mean: 0.0863092631 max: 0.0863092631
Time = 0.46s

diagonal:  Solving for rho, Initial residual = 0, Final residual = 0, No Iterations 0
diagonal:  Solving for Ux, Initial residual = 0, Final residual = 0, No Iterations 0
diagonal:  Solving for Uy, Initial residual = 0, Final residual = 0, No Iterations 0
diagonal:  Solving for h, Initial residual = 0, Final residual = 0, No Iterations 0
diagonal:  Solving for p_rgh, Initial residual = 0, Final residual = 0, No Iterations 0
diagonal:  Solving for rho, Initial residual = 0, Final residual = 0, No Iterations 0
time step continuity errors : sum local = 1.724802964e-15, global = -1.724802964e-15, cumulative = -1.168867537e-14
diagonal:  Solving for p_rgh, Initial residual = 0, Final residual = 0, No Iterations 0
diagonal:  Solving for rho, Initial residual = 0, Final residual = 0, No Iterations 0
time step continuity errors : sum local = 2.299737285e-15, global = -2.299737285e-15, cumulative = -1.398841265e-14
diagonal:  Solving for epsilon, Initial residual = 0, Final residual = 0, No Iterations 0
diagonal:  Solving for k, Initial residual = 0, Final residual = 0, No Iterations 0
ExecutionTime = 2.763832 s  ClockTime = 3 s

scalarTransport write:
diagonal:  Solving for s, Initial residual = 0, Final residual = 0, No Iterations 0

phaseScalarTransport: Executing
diagonal:  Solving for phaseScalarTransport:Phi.dummy, Initial residual = 0, Final residual = 0, No Iterations 0
diagonal:  Solving for s.dummy, Initial residual = 0, Final residual = 0, No Iterations 0

Courant Number mean: 0.08630926551 max: 0.08630926551
Time = 0.47s

diagonal:  Solving for rho, Initial residual = 0, Final residual = 0, No Iterations 0
diagonal:  Solving for Ux, Initial residual = 0, Final residual = 0, No Iterations 0
diagonal:  Solving for Uy, Initial residual = 0, Final residual = 0, No Iterations 0
diagonal:  Solving for h, Initial residual = 0, Final residual = 0, No Iterations 0
diagonal:  Solving for p_rgh, Initial residual = 0, Final residual = 0, No Iterations 0
diagonal:  Solving for rho, Initial residual = 0, Final residual = 0, No Iterations 0
time step continuity errors : sum local = 3.832895687e-16, global = -3.832895687e-16, cumulative = -1.437170222e-14
diagonal:  Solving for p_rgh, Initial residual = 0, Final residual = 0, No Iterations 0
diagonal:  Solving for rho, Initial residual = 0, Final residual = 0, No Iterations 0
time step continuity errors : sum local = 1.533158275e-15, global = -1.533158275e-15, cumulative = -1.590486049e-14
diagonal:  Solving for epsilon, Initial residual = 0, Final residual = 0, No Iterations 0
diagonal:  Solving for k, Initial residual = 0, Final residual = 0, No Iterations 0
ExecutionTime = 2.767281 s  ClockTime = 3 s

scalarTransport write:
diagonal:  Solving for s, Initial residual = 0, Final residual = 0, No Iterations 0

phaseScalarTransport: Executing
diagonal:  Solving for phaseScalarTransport:Phi.dummy, Initial residual = 0, Final residual = 0, No Iterations 0
diagonal:  Solving for s.dummy, Initial residual = 0, Final residual = 0, No Iterations 0

Courant Number mean: 0.08630926771 max: 0.08630926771
Time = 0.48s

diagonal:  Solving for rho, Initial residual = 0, Final residual = 0, No Iterations 0
diagonal:  Solving for Ux, Initial residual = 0, Final residual = 0, No Iterations 0
diagonal:  Solving for Uy, Initial residual = 0, Final residual = 0, No Iterations 0
diagonal:  Solving for h, Initial residual = 0, Final residual = 0, No Iterations 0
diagonal:  Solving for p_rgh, Initial residual = 0, Final residual = 0, No Iterations 0
diagonal:  Solving for rho, Initial residual = 0, Final residual = 0, No Iterations 0
time step continuity errors : sum local = 1.724803147e-15, global = 1.724803147e-15, cumulative = -1.418005735e-14
diagonal:  Solving for p_rgh, Initial residual = 0, Final residual = 0, No Iterations 0
diagonal:  Solving for rho, Initial residual = 0, Final residual = 0, No Iterations 0
time step continuity errors : sum local = 1.916447941e-16, global = 1.916447941e-16, cumulative = -1.398841255e-14
diagonal:  Solving for epsilon, Initial residual = 0, Final residual = 0, No Iterations 0
[...]
Time = 0.89s

diagonal:  Solving for rho, Initial residual = 0, Final residual = 0, No Iterations 0
diagonal:  Solving for Ux, Initial residual = 0, Final residual = 0, No Iterations 0
diagonal:  Solving for Uy, Initial residual = 0, Final residual = 0, No Iterations 0
diagonal:  Solving for h, Initial residual = 0, Final residual = 0, No Iterations 0
diagonal:  Solving for p_rgh, Initial residual = 0, Final residual = 0, No Iterations 0
diagonal:  Solving for rho, Initial residual = 0, Final residual = 0, No Iterations 0
time step continuity errors : sum local = 2.68302854e-15, global = -2.68302854e-15, cumulative = -1.897117836e-14
diagonal:  Solving for p_rgh, Initial residual = 0, Final residual = 0, No Iterations 0
diagonal:  Solving for rho, Initial residual = 0, Final residual = 0, No Iterations 0
time step continuity errors : sum local = 3.832897915e-16, global = -3.832897915e-16, cumulative = -1.935446815e-14
diagonal:  Solving for epsilon, Initial residual = 0, Final residual = 0, No Iterations 0
diagonal:  Solving for k, Initial residual = 0, Final residual = 0, No Iterations 0
ExecutionTime = 2.929055 s  ClockTime = 3 s

scalarTransport write:
diagonal:  Solving for s, Initial residual = 0, Final residual = 0, No Iterations 0

phaseScalarTransport: Executing
diagonal:  Solving for phaseScalarTransport:Phi.dummy, Initial residual = 0, Final residual = 0, No Iterations 0
diagonal:  Solving for s.dummy, Initial residual = 0, Final residual = 0, No Iterations 0

Courant Number mean: 0.08630929084 max: 0.08630929084
Time = 0.9s

diagonal:  Solving for rho, Initial residual = 0, Final residual = 0, No Iterations 0
diagonal:  Solving for Ux, Initial residual = 0, Final residual = 0, No Iterations 0
diagonal:  Solving for Uy, Initial residual = 0, Final residual = 0, No Iterations 0
diagonal:  Solving for h, Initial residual = 0, Final residual = 0, No Iterations 0
diagonal:  Solving for p_rgh, Initial residual = 0, Final residual = 0, No Iterations 0
diagonal:  Solving for rho, Initial residual = 0, Final residual = 0, No Iterations 0
time step continuity errors : sum local = 2.491383648e-15, global = -2.491383648e-15, cumulative = -2.18458518e-14
diagonal:  Solving for p_rgh, Initial residual = 0, Final residual = 0, No Iterations 0
diagonal:  Solving for rho, Initial residual = 0, Final residual = 0, No Iterations 0
time step continuity errors : sum local = 9.582244798e-16, global = 9.582244798e-16, cumulative = -2.088762732e-14
diagonal:  Solving for epsilon, Initial residual = 0, Final residual = 0, No Iterations 0
diagonal:  Solving for k, Initial residual = 0, Final residual = 0, No Iterations 0
ExecutionTime = 2.932105 s  ClockTime = 3 s

scalarTransport write:
diagonal:  Solving for s, Initial residual = 0, Final residual = 0, No Iterations 0

phaseScalarTransport: Executing
diagonal:  Solving for phaseScalarTransport:Phi.dummy, Initial residual = 0, Final residual = 0, No Iterations 0
diagonal:  Solving for s.dummy, Initial residual = 0, Final residual = 0, No Iterations 0

Courant Number mean: 0.08630929089 max: 0.08630929089
Time = 0.91s

diagonal:  Solving for rho, Initial residual = 0, Final residual = 0, No Iterations 0
diagonal:  Solving for Ux, Initial residual = 0, Final residual = 0, No Iterations 0
diagonal:  Solving for Uy, Initial residual = 0, Final residual = 0, No Iterations 0
diagonal:  Solving for h, Initial residual = 0, Final residual = 0, No Iterations 0
diagonal:  Solving for p_rgh, Initial residual = 0, Final residual = 0, No Iterations 0
diagonal:  Solving for rho, Initial residual = 0, Final residual = 0, No Iterations 0
time step continuity errors : sum local = 1.724804066e-15, global = 1.724804066e-15, cumulative = -1.916282325e-14
diagonal:  Solving for p_rgh, Initial residual = 0, Final residual = 0, No Iterations 0
diagonal:  Solving for rho, Initial residual = 0, Final residual = 0, No Iterations 0
time step continuity errors : sum local = 0, global = 0, cumulative = -1.916282325e-14
diagonal:  Solving for epsilon, Initial residual = 0, Final residual = 0, No Iterations 0
diagonal:  Solving for k, Initial residual = 0, Final residual = 0, No Iterations 0
ExecutionTime = 2.935198 s  ClockTime = 3 s

scalarTransport write:
diagonal:  Solving for s, Initial residual = 0, Final residual = 0, No Iterations 0

phaseScalarTransport: Executing
diagonal:  Solving for phaseScalarTransport:Phi.dummy, Initial residual = 0, Final residual = 0, No Iterations 0
diagonal:  Solving for s.dummy, Initial residual = 0, Final residual = 0, No Iterations 0

Courant Number mean: 0.08630929093 max: 0.08630929093
Time = 0.92s

diagonal:  Solving for rho, Initial residual = 0, Final residual = 0, No Iterations 0
diagonal:  Solving for Ux, Initial residual = 0, Final residual = 0, No Iterations 0
diagonal:  Solving for Uy, Initial residual = 0, Final residual = 0, No Iterations 0
diagonal:  Solving for h, Initial residual = 0, Final residual = 0, No Iterations 0
diagonal:  Solving for p_rgh, Initial residual = 0, Final residual = 0, No Iterations 0
diagonal:  Solving for rho, Initial residual = 0, Final residual = 0, No Iterations 0
time step continuity errors : sum local = 2.491383653e-15, global = -2.491383653e-15, cumulative = -2.16542069e-14
diagonal:  Solving for p_rgh, Initial residual = 0, Final residual = 0, No Iterations 0
diagonal:  Solving for rho, Initial residual = 0, Final residual = 0, No Iterations 0
time step continuity errors : sum local = 5.749346891e-16, global = -5.749346891e-16, cumulative = -2.222914159e-14
diagonal:  Solving for epsilon, Initial residual = 0, Final residual = 0, No Iterations 0
diagonal:  Solving for k, Initial residual = 0, Final residual = 0, No Iterations 0
ExecutionTime = 2.93835 s  ClockTime = 3 s

scalarTransport write:
diagonal:  Solving for s, Initial residual = 0, Final residual = 0, No Iterations 0

phaseScalarTransport: Executing
diagonal:  Solving for phaseScalarTransport:Phi.dummy, Initial residual = 0, Final residual = 0, No Iterations 0
diagonal:  Solving for s.dummy, Initial residual = 0, Final residual = 0, No Iterations 0

Courant Number mean: 0.08630929097 max: 0.08630929097
Time = 0.93s

diagonal:  Solving for rho, Initial residual = 0, Final residual = 0, No Iterations 0
diagonal:  Solving for Ux, Initial residual = 0, Final residual = 0, No Iterations 0
diagonal:  Solving for Uy, Initial residual = 0, Final residual = 0, No Iterations 0
diagonal:  Solving for h, Initial residual = 0, Final residual = 0, No Iterations 0
diagonal:  Solving for p_rgh, Initial residual = 0, Final residual = 0, No Iterations 0
diagonal:  Solving for rho, Initial residual = 0, Final residual = 0, No Iterations 0
time step continuity errors : sum local = 1.341514276e-15, global = -1.341514276e-15, cumulative = -2.357065587e-14
diagonal:  Solving for p_rgh, Initial residual = 0, Final residual = 0, No Iterations 0
diagonal:  Solving for rho, Initial residual = 0, Final residual = 0, No Iterations 0
time step continuity errors : sum local = 7.665795862e-16, global = 7.665795862e-16, cumulative = -2.280407628e-14
diagonal:  Solving for epsilon, Initial residual = 0, Final residual = 0, No Iterations 0
diagonal:  Solving for k, Initial residual = 0, Final residual = 0, No Iterations 0
ExecutionTime = 2.941818 s  ClockTime = 3 s

scalarTransport write:
diagonal:  Solving for s, Initial residual = 0, Final residual = 0, No Iterations 0

phaseScalarTransport: Executing
diagonal:  Solving for phaseScalarTransport:Phi.dummy, Initial residual = 0, Final residual = 0, No Iterations 0
diagonal:  Solving for s.dummy, Initial residual = 0, Final residual = 0, No Iterations 0

Courant Number mean: 0.08630929101 max: 0.08630929101
Time = 0.94s

diagonal:  Solving for rho, Initial residual = 0, Final residual = 0, No Iterations 0
diagonal:  Solving for Ux, Initial residual = 0, Final residual = 0, No Iterations 0
diagonal:  Solving for Uy, Initial residual = 0, Final residual = 0, No Iterations 0
diagonal:  Solving for h, Initial residual = 0, Final residual = 0, No Iterations 0
diagonal:  Solving for p_rgh, Initial residual = 0, Final residual = 0, No Iterations 0
diagonal:  Solving for rho, Initial residual = 0, Final residual = 0, No Iterations 0
time step continuity errors : sum local = 7.665795868e-16, global = 7.665795868e-16, cumulative = -2.20374967e-14
diagonal:  Solving for p_rgh, Initial residual = 0, Final residual = 0, No Iterations 0
diagonal:  Solving for rho, Initial residual = 0, Final residual = 0, No Iterations 0
time step continuity errors : sum local = 1.341514277e-15, global = 1.341514277e-15, cumulative = -2.069598242e-14
diagonal:  Solving for epsilon, Initial residual = 0, Final residual = 0, No Iterations 0
diagonal:  Solving for k, Initial residual = 0, Final residual = 0, No Iterations 0
ExecutionTime = 2.94612 s  ClockTime = 3 s

scalarTransport write:
diagonal:  Solving for s, Initial residual = 0, Final residual = 0, No Iterations 0

phaseScalarTransport: Executing
diagonal:  Solving for phaseScalarTransport:Phi.dummy, Initial residual = 0, Final residual = 0, No Iterations 0
diagonal:  Solving for s.dummy, Initial residual = 0, Final residual = 0, No Iterations 0

Courant Number mean: 0.08630929104 max: 0.08630929104
Time = 0.95s

diagonal:  Solving for rho, Initial residual = 0, Final residual = 0, No Iterations 0
diagonal:  Solving for Ux, Initial residual = 0, Final residual = 0, No Iterations 0
diagonal:  Solving for Uy, Initial residual = 0, Final residual = 0, No Iterations 0
diagonal:  Solving for h, Initial residual = 0, Final residual = 0, No Iterations 0
diagonal:  Solving for p_rgh, Initial residual = 0, Final residual = 0, No Iterations 0
diagonal:  Solving for rho, Initial residual = 0, Final residual = 0, No Iterations 0
time step continuity errors : sum local = 1.724804072e-15, global = -1.724804072e-15, cumulative = -2.242078649e-14
diagonal:  Solving for p_rgh, Initial residual = 0, Final residual = 0, No Iterations 0
diagonal:  Solving for rho, Initial residual = 0, Final residual = 0, No Iterations 0
time step continuity errors : sum local = 5.749346906e-16, global = -5.749346906e-16, cumulative = -2.299572118e-14
diagonal:  Solving for epsilon, Initial residual = 0, Final residual = 0, No Iterations 0
diagonal:  Solving for k, Initial residual = 0, Final residual = 0, No Iterations 0
ExecutionTime = 2.949344 s  ClockTime = 3 s

scalarTransport write:
diagonal:  Solving for s, Initial residual = 0, Final residual = 0, No Iterations 0

phaseScalarTransport: Executing
diagonal:  Solving for phaseScalarTransport:Phi.dummy, Initial residual = 0, Final residual = 0, No Iterations 0
diagonal:  Solving for s.dummy, Initial residual = 0, Final residual = 0, No Iterations 0

Courant Number mean: 0.08630929107 max: 0.08630929107
Time = 0.96s

diagonal:  Solving for rho, Initial residual = 0, Final residual = 0, No Iterations 0
diagonal:  Solving for Ux, Initial residual = 0, Final residual = 0, No Iterations 0
diagonal:  Solving for Uy, Initial residual = 0, Final residual = 0, No Iterations 0
diagonal:  Solving for h, Initial residual = 0, Final residual = 0, No Iterations 0
diagonal:  Solving for p_rgh, Initial residual = 0, Final residual = 0, No Iterations 0
diagonal:  Solving for rho, Initial residual = 0, Final residual = 0, No Iterations 0
time step continuity errors : sum local = 1.533159176e-15, global = -1.533159176e-15, cumulative = -2.452888036e-14
diagonal:  Solving for p_rgh, Initial residual = 0, Final residual = 0, No Iterations 0
diagonal:  Solving for rho, Initial residual = 0, Final residual = 0, No Iterations 0
time step continuity errors : sum local = 3.641253043e-15, global = -3.641253043e-15, cumulative = -2.81701334e-14
diagonal:  Solving for epsilon, Initial residual = 0, Final residual = 0, No Iterations 0
diagonal:  Solving for k, Initial residual = 0, Final residual = 0, No Iterations 0
ExecutionTime = 2.953008 s  ClockTime = 3 s

scalarTransport write:
diagonal:  Solving for s, Initial residual = 0, Final residual = 0, No Iterations 0

phaseScalarTransport: Executing
diagonal:  Solving for phaseScalarTransport:Phi.dummy, Initial residual = 0, Final residual = 0, No Iterations 0
diagonal:  Solving for s.dummy, Initial residual = 0, Final residual = 0, No Iterations 0

Courant Number mean: 0.0863092911 max: 0.0863092911
Time = 0.97s

diagonal:  Solving for rho, Initial residual = 0, Final residual = 0, No Iterations 0
diagonal:  Solving for Ux, Initial residual = 0, Final residual = 0, No Iterations 0
diagonal:  Solving for Uy, Initial residual = 0, Final residual = 0, No Iterations 0
diagonal:  Solving for h, Initial residual = 0, Final residual = 0, No Iterations 0
diagonal:  Solving for p_rgh, Initial residual = 0, Final residual = 0, No Iterations 0
diagonal:  Solving for rho, Initial residual = 0, Final residual = 0, No Iterations 0
time step continuity errors : sum local = 7.665795885e-16, global = 7.665795885e-16, cumulative = -2.740355381e-14
diagonal:  Solving for p_rgh, Initial residual = 0, Final residual = 0, No Iterations 0
diagonal:  Solving for rho, Initial residual = 0, Final residual = 0, No Iterations 0
time step continuity errors : sum local = 1.916448971e-16, global = 1.916448971e-16, cumulative = -2.721190891e-14
diagonal:  Solving for epsilon, Initial residual = 0, Final residual = 0, No Iterations 0
diagonal:  Solving for k, Initial residual = 0, Final residual = 0, No Iterations 0
ExecutionTime = 2.956764 s  ClockTime = 3 s

scalarTransport write:
diagonal:  Solving for s, Initial residual = 0, Final residual = 0, No Iterations 0

phaseScalarTransport: Executing
diagonal:  Solving for phaseScalarTransport:Phi.dummy, Initial residual = 0, Final residual = 0, No Iterations 0
diagonal:  Solving for s.dummy, Initial residual = 0, Final residual = 0, No Iterations 0

Courant Number mean: 0.08630929113 max: 0.08630929113
Time = 0.98s

diagonal:  Solving for rho, Initial residual = 0, Final residual = 0, No Iterations 0
diagonal:  Solving for Ux, Initial residual = 0, Final residual = 0, No Iterations 0
diagonal:  Solving for Uy, Initial residual = 0, Final residual = 0, No Iterations 0
diagonal:  Solving for h, Initial residual = 0, Final residual = 0, No Iterations 0
diagonal:  Solving for p_rgh, Initial residual = 0, Final residual = 0, No Iterations 0
diagonal:  Solving for rho, Initial residual = 0, Final residual = 0, No Iterations 0
time step continuity errors : sum local = 9.582244862e-16, global = 9.582244862e-16, cumulative = -2.625368443e-14
diagonal:  Solving for p_rgh, Initial residual = 0, Final residual = 0, No Iterations 0
diagonal:  Solving for rho, Initial residual = 0, Final residual = 0, No Iterations 0
time step continuity errors : sum local = 1.916448972e-15, global = -1.916448972e-15, cumulative = -2.81701334e-14
diagonal:  Solving for epsilon, Initial residual = 0, Final residual = 0, No Iterations 0
diagonal:  Solving for k, Initial residual = 0, Final residual = 0, No Iterations 0
ExecutionTime = 2.960831 s  ClockTime = 3 s

scalarTransport write:
diagonal:  Solving for s, Initial residual = 0, Final residual = 0, No Iterations 0

phaseScalarTransport: Executing
diagonal:  Solving for phaseScalarTransport:Phi.dummy, Initial residual = 0, Final residual = 0, No Iterations 0
diagonal:  Solving for s.dummy, Initial residual = 0, Final residual = 0, No Iterations 0

Courant Number mean: 0.08630929115 max: 0.08630929115
Time = 0.99s

diagonal:  Solving for rho, Initial residual = 0, Final residual = 0, No Iterations 0
diagonal:  Solving for Ux, Initial residual = 0, Final residual = 0, No Iterations 0
diagonal:  Solving for Uy, Initial residual = 0, Final residual = 0, No Iterations 0
diagonal:  Solving for h, Initial residual = 0, Final residual = 0, No Iterations 0
diagonal:  Solving for p_rgh, Initial residual = 0, Final residual = 0, No Iterations 0
diagonal:  Solving for rho, Initial residual = 0, Final residual = 0, No Iterations 0
time step continuity errors : sum local = 2.87467346e-15, global = 2.87467346e-15, cumulative = -2.529545994e-14
diagonal:  Solving for p_rgh, Initial residual = 0, Final residual = 0, No Iterations 0
diagonal:  Solving for rho, Initial residual = 0, Final residual = 0, No Iterations 0
time step continuity errors : sum local = 0, global = 0, cumulative = -2.529545994e-14
diagonal:  Solving for epsilon, Initial residual = 0, Final residual = 0, No Iterations 0
diagonal:  Solving for k, Initial residual = 0, Final residual = 0, No Iterations 0
ExecutionTime = 2.964383 s  ClockTime = 3 s

scalarTransport write:
diagonal:  Solving for s, Initial residual = 0, Final residual = 0, No Iterations 0

phaseScalarTransport: Executing
diagonal:  Solving for phaseScalarTransport:Phi.dummy, Initial residual = 0, Final residual = 0, No Iterations 0
diagonal:  Solving for s.dummy, Initial residual = 0, Final residual = 0, No Iterations 0

Courant Number mean: 0.08630929117 max: 0.08630929117
Time = 1s

diagonal:  Solving for rho, Initial residual = 0, Final residual = 0, No Iterations 0
diagonal:  Solving for Ux, Initial residual = 0, Final residual = 0, No Iterations 0
diagonal:  Solving for Uy, Initial residual = 0, Final residual = 0, No Iterations 0
diagonal:  Solving for h, Initial residual = 0, Final residual = 0, No Iterations 0
diagonal:  Solving for p_rgh, Initial residual = 0, Final residual = 0, No Iterations 0
diagonal:  Solving for rho, Initial residual = 0, Final residual = 0, No Iterations 0
time step continuity errors : sum local = 2.683028564e-15, global = -2.683028564e-15, cumulative = -2.79784885e-14
diagonal:  Solving for p_rgh, Initial residual = 0, Final residual = 0, No Iterations 0
diagonal:  Solving for rho, Initial residual = 0, Final residual = 0, No Iterations 0
time step continuity errors : sum local = 1.533159179e-15, global = -1.533159179e-15, cumulative = -2.951164768e-14
diagonal:  Solving for epsilon, Initial residual = 0, Final residual = 0, No Iterations 0
diagonal:  Solving for k, Initial residual = 0, Final residual = 0, No Iterations 0
ExecutionTime = 2.97114 s  ClockTime = 3 s

diagonal:  Solving for age, Initial residual = 0, Final residual = 0, No Iterations 0
Field age converged in 0 correctors

Min/max age:0 0.1158625179
--> FOAM Warning : 
    From function Foam::vector Foam::eigenValues(const tensor&)
    in file primitives/Tensor/tensor/tensor.C at line 103
    Complex eigenvalues detected for tensor: (2.175940935e-06 -642.5940386 0 0.01289841065 -5.81707269e-08 0 0 0 0)
--> FOAM Warning : 
    From function Foam::vector Foam::eigenValues(const tensor&)
    in file primitives/Tensor/tensor/tensor.C at line 103
    Complex eigenvalues detected for tensor: (2.175940935e-06 -642.5940386 0 0.01289841065 -5.81707269e-08 0 0 0 0)
writeVTK writeVTK(U,p) output:
Time: 1
    Internal  : "/home/as/openfoam/OpenFOAM-12/test/postProcessing/channel/VTK/channel_1.vtk"
    Original cells:1 points:8   Additional cells:0  additional points:0

    Writing volVectorField field U
    Writing volScalarField field p
scalarTransport write:
diagonal:  Solving for s, Initial residual = 0, Final residual = 0, No Iterations 0

phaseScalarTransport: Executing
diagonal:  Solving for phaseScalarTransport:Phi.dummy, Initial residual = 0, Final residual = 0, No Iterations 0
diagonal:  Solving for s.dummy, Initial residual = 0, Final residual = 0, No Iterations 0

streamlines streamlinesSphere(centre=(000),radius=0.1,nPoints=100,p,U,direction=forward) write:
    Seeded 62 particles
    Sampled 372 locations
streamlines streamlinesLine(start=(-0.5-0.5-0.05),end=(0.50.50.05),nPoints=100,p,U,direction=backward) write:
    Seeded 100 particles
    Sampled 600 locations
streamlines streamlinesPatch(patch=inlet,nPoints=100,p,U) write:
    Seeded 100 particles
    Sampled 1200 locations
streamlines streamlinesPoints(points=((-0.2-0.20)(000)(0.20.20))p,U,direction=forward) write:
    Seeded 3 particles
    Sampled 18 locations
End

