/*---------------------------------------------------------------------------*\
  =========                 |
  \\      /  F ield         | OpenFOAM: The Open Source CFD Toolbox
   \\    /   O peration     | Website:  https://openfoam.org
    \\  /    A nd           | Version:  12
     \\/     M anipulation  |
\*---------------------------------------------------------------------------*/
Build  : 12-cc05c1b03c38
Exec   : topoSet
Date   : Oct 10 2024
Time   : 23:17:20
Host   : "DESKTOP-KBPC6IC"
PID    : 4923
I/O    : uncollated
Case   : /home/as/openfoam/OpenFOAM-12/test/postProcessing/channel
nProcs : 1
sigFpe : Enabling floating point exception trapping (FOAM_SIGFPE).
fileModificationChecking : Monitoring run-time modified files using timeStampMaster (fileModificationSkew 10)
allowSystemOperations : Allowing user-supplied system call operations

// * * * * * * * * * * * * * * * * * * * * * * * * * * * * * * * * * * * * * //
Create time

Create polyMesh for time = 0

Reading "topoSetDict"

Time = 0s
    mesh not changed.
Created faceSet f0
    Applying source patchToFace
    Adding all faces of patch inlet ...
    Found matching patch inlet with 1 faces.
    faceSet f0 now size 1
Created faceZoneSet f0
    Applying source setToFaceZone
    Adding all faces from faceSet f0 ...
    faceZoneSet f0 now size 1
End

