/*---------------------------------------------------------------------------*\
  =========                 |
  \\      /  F ield         | OpenFOAM: The Open Source CFD Toolbox
   \\    /   O peration     | Website:  https://openfoam.org
    \\  /    A nd           | Version:  12
     \\/     M anipulation  |
\*---------------------------------------------------------------------------*/
Build  : 12-cc05c1b03c38
Exec   : zeroDimensionalMesh
Date   : Oct 10 2024
Time   : 23:14:58
Host   : "DESKTOP-KBPC6IC"
PID    : 4414
I/O    : uncollated
Case   : /home/as/openfoam/OpenFOAM-12/test/multiphaseEuler/populationBalance/breakup
nProcs : 1
sigFpe : Enabling floating point exception trapping (FOAM_SIGFPE).
fileModificationChecking : Monitoring run-time modified files using timeStampMaster (fileModificationSkew 10)
allowSystemOperations : Allowing user-supplied system call operations

// * * * * * * * * * * * * * * * * * * * * * * * * * * * * * * * * * * * * * //
Create time

End

