/*---------------------------------------------------------------------------*\
  =========                 |
  \\      /  F ield         | OpenFOAM: The Open Source CFD Toolbox
   \\    /   O peration     | Website:  https://openfoam.org
    \\  /    A nd           | Version:  12
     \\/     M anipulation  |
\*---------------------------------------------------------------------------*/
Build  : 12-cc05c1b03c38
Exec   : foamRun
Date   : Oct 10 2024
Time   : 23:14:59
Host   : "DESKTOP-KBPC6IC"
PID    : 4417
I/O    : uncollated
Case   : /home/as/openfoam/OpenFOAM-12/test/multiphaseEuler/populationBalance/breakup
nProcs : 1
sigFpe : Enabling floating point exception trapping (FOAM_SIGFPE).
fileModificationChecking : Monitoring run-time modified files using timeStampMaster (fileModificationSkew 10)
allowSystemOperations : Allowing user-supplied system call operations

// * * * * * * * * * * * * * * * * * * * * * * * * * * * * * * * * * * * * * //
Create time

Create mesh for time = 0

Selecting solver multiphaseEuler
Selecting phaseSystem populationBalanceMultiphaseSystem
No MRF models present

Selecting phaseModel for air1: pureIsothermalPhaseModel
Selecting diameterModel for phase air1: velocityGroup
Selecting thermodynamics package 
{
    type            heRhoThermo;
    mixture         pureMixture;
    transport       const;
    thermo          hConst;
    equationOfState perfectGas;
    specie          specie;
    energy          sensibleInternalEnergy;
}

Calculating face flux field phi.air1
Selecting turbulence model type laminar
Selecting laminar stress model Stokes
Selecting phaseModel for air2: pureIsothermalPhaseModel
Selecting diameterModel for phase air2: velocityGroup
Selecting thermodynamics package 
{
    type            heRhoThermo;
    mixture         pureMixture;
    transport       const;
    thermo          hConst;
    equationOfState perfectGas;
    specie          specie;
    energy          sensibleInternalEnergy;
}

Calculating face flux field phi.air2
Selecting turbulence model type laminar
Selecting laminar stress model Stokes
Selecting phaseModel for air3: pureIsothermalPhaseModel
Selecting diameterModel for phase air3: velocityGroup
Selecting thermodynamics package 
{
    type            heRhoThermo;
    mixture         pureMixture;
    transport       const;
    thermo          hConst;
    equationOfState perfectGas;
    specie          specie;
    energy          sensibleInternalEnergy;
}

Calculating face flux field phi.air3
Selecting turbulence model type laminar
Selecting laminar stress model Stokes
Selecting phaseModel for water: pureIsothermalPhaseModel
Selecting diameterModel for phase water: none
Selecting thermodynamics package 
{
    type            heRhoThermo;
    mixture         pureMixture;
    transport       const;
    thermo          hConst;
    equationOfState rhoConst;
    specie          specie;
    energy          sensibleInternalEnergy;
}

Calculating face flux field phi.water
Selecting turbulence model type laminar
Selecting laminar stress model Stokes
Setting up population balance: bubbles
Selecting breakup model for bubbles: powerLaw
Selecting daughter size distribution model for bubbles: uniformBinary
Courant Number mean: 0 max: 0

PIMPLE: No convergence criteria found


PIMPLE: No corrector convergence criteria found
        Calculations will do 2 corrections


PIMPLE: Operating solver in transient mode with 2 outer correctors



Starting time loop

    - selecting all cells
    - selected 1 cell(s) with volume 1
Courant Number mean: 0 max: 0
Time = 0.1s

PIMPLE: Iteration 1
MULES: Solving for alpha.air1
MULES: Solving for alpha.air2
MULES: Solving for alpha.air3
MULES: Solving for alpha.water
air1 fraction, min, max = 0 0 0
air2 fraction, min, max = 0 0 0
air3 fraction, min, max = 0.05 0.05 0.05
water fraction, min, max = 0.95 0.95 0.95
Phase-sum volume fraction, min, max = 1 1 1
populationBalance bubbles: Iteration 1
diagonal:  Solving for f0.air1, Initial residual = 0, Final residual = 0, No Iterations 0
diagonal:  Solving for f1.air1, Initial residual = 0, Final residual = 0, No Iterations 0
diagonal:  Solving for f2.air1, Initial residual = 0, Final residual = 0, No Iterations 0
diagonal:  Solving for f3.air1, Initial residual = 0, Final residual = 0, No Iterations 0
diagonal:  Solving for f4.air1, Initial residual = 0, Final residual = 0, No Iterations 0
diagonal:  Solving for f5.air1, Initial residual = 0, Final residual = 0, No Iterations 0
diagonal:  Solving for f6.air1, Initial residual = 0, Final residual = 0, No Iterations 0
diagonal:  Solving for f7.air1, Initial residual = 0, Final residual = 0, No Iterations 0
diagonal:  Solving for f8.air1, Initial residual = 0, Final residual = 0, No Iterations 0
diagonal:  Solving for f9.air1, Initial residual = 0, Final residual = 0, No Iterations 0
diagonal:  Solving for f10.air1, Initial residual = 0, Final residual = 0, No Iterations 0
diagonal:  Solving for f11.air1, Initial residual = 0, Final residual = 0, No Iterations 0
diagonal:  Solving for f12.air1, Initial residual = 0, Final residual = 0, No Iterations 0
diagonal:  Solving for f13.air1, Initial residual = 0, Final residual = 0, No Iterations 0
diagonal:  Solving for f14.air1, Initial residual = 0, Final residual = 0, No Iterations 0
diagonal:  Solving for f15.air1, Initial residual = 0, Final residual = 0, No Iterations 0
diagonal:  Solving for f16.air1, Initial residual = 0, Final residual = 0, No Iterations 0
diagonal:  Solving for f17.air1, Initial residual = 0, Final residual = 0, No Iterations 0
diagonal:  Solving for f18.air1, Initial residual = 0, Final residual = 0, No Iterations 0
diagonal:  Solving for f19.air1, Initial residual = 0, Final residual = 0, No Iterations 0
diagonal:  Solving for f20.air2, Initial residual = 0, Final residual = 0, No Iterations 0
diagonal:  Solving for f21.air2, Initial residual = 0, Final residual = 0, No Iterations 0
diagonal:  Solving for f22.air2, Initial residual = 0, Final residual = 0, No Iterations 0
diagonal:  Solving for f23.air2, Initial residual = 0, Final residual = 0, No Iterations 0
diagonal:  Solving for f24.air2, Initial residual = 0, Final residual = 0, No Iterations 0
diagonal:  Solving for f25.air3, Initial residual = 0, Final residual = 0, No Iterations 0
diagonal:  Solving for f26.air3, Initial residual = 0, Final residual = 0, No Iterations 0
diagonal:  Solving for f27.air3, Initial residual = 0, Final residual = 0, No Iterations 0
diagonal:  Solving for f28.air3, Initial residual = 0, Final residual = 0, No Iterations 0
bubbles sizeGroup phase fraction first, last = 0 0.0472209
air1 sizeGroups-sum volume fraction, min, max = 1 1 1
air1 Sauter mean diameter, min, max = 0.331371 0.331371 0.331371
air2 sizeGroups-sum volume fraction, min, max = 1 1 1
air2 Sauter mean diameter, min, max = 0.650217 0.650217 0.650217
air3 sizeGroups-sum volume fraction, min, max = 1.00361 1.00361 1.00361
air3 Sauter mean diameter, min, max = 1.21941 1.21941 1.21941
Constructing momentum equations
diagonal:  Solving for p_rgh, Initial residual = 0, Final residual = 0, No Iterations 0
PIMPLE: Iteration 2
MULES: Solving for alpha.air1
MULES: Solving for alpha.air2
MULES: Solving for alpha.air3
MULES: Solving for alpha.water
air1 fraction, min, max = 5.07483e-06 5.07483e-06 5.07483e-06
air2 fraction, min, max = 0.000287484 0.000287484 0.000287484
air3 fraction, min, max = 0.0497091 0.0497091 0.0497091
water fraction, min, max = 0.95 0.95 0.95
Phase-sum volume fraction, min, max = 1 1 1
populationBalance bubbles: Iteration 1
diagonal:  Solving for f0.air1, Initial residual = 0, Final residual = 0, No Iterations 0
diagonal:  Solving for f1.air1, Initial residual = 0, Final residual = 0, No Iterations 0
diagonal:  Solving for f2.air1, Initial residual = 0, Final residual = 0, No Iterations 0
diagonal:  Solving for f3.air1, Initial residual = 0, Final residual = 0, No Iterations 0
diagonal:  Solving for f4.air1, Initial residual = 0, Final residual = 0, No Iterations 0
diagonal:  Solving for f5.air1, Initial residual = 0, Final residual = 0, No Iterations 0
diagonal:  Solving for f6.air1, Initial residual = 0, Final residual = 0, No Iterations 0
diagonal:  Solving for f7.air1, Initial residual = 0, Final residual = 0, No Iterations 0
diagonal:  Solving for f8.air1, Initial residual = 0, Final residual = 0, No Iterations 0
diagonal:  Solving for f9.air1, Initial residual = 0, Final residual = 0, No Iterations 0
diagonal:  Solving for f10.air1, Initial residual = 0, Final residual = 0, No Iterations 0
diagonal:  Solving for f11.air1, Initial residual = 0, Final residual = 0, No Iterations 0
diagonal:  Solving for f12.air1, Initial residual = 0, Final residual = 0, No Iterations 0
diagonal:  Solving for f13.air1, Initial residual = 0, Final residual = 0, No Iterations 0
diagonal:  Solving for f14.air1, Initial residual = 0, Final residual = 0, No Iterations 0
diagonal:  Solving for f15.air1, Initial residual = 0, Final residual = 0, No Iterations 0
diagonal:  Solving for f16.air1, Initial residual = 0, Final residual = 0, No Iterations 0
diagonal:  Solving for f17.air1, Initial residual = 0, Final residual = 0, No Iterations 0
diagonal:  Solving for f18.air1, Initial residual = 0, Final residual = 0, No Iterations 0
diagonal:  Solving for f19.air1, Initial residual = 0, Final residual = 0, No Iterations 0
diagonal:  Solving for f20.air2, Initial residual = 0, Final residual = 0, No Iterations 0
diagonal:  Solving for f21.air2, Initial residual = 0, Final residual = 0, No Iterations 0
diagonal:  Solving for f22.air2, Initial residual = 0, Final residual = 0, No Iterations 0
diagonal:  Solving for f23.air2, Initial residual = 0, Final residual = 0, No Iterations 0
diagonal:  Solving for f24.air2, Initial residual = 0, Final residual = 0, No Iterations 0
diagonal:  Solving for f25.air3, Initial residual = 0, Final residual = 0, No Iterations 0
diagonal:  Solving for f26.air3, Initial residual = 0, Final residual = 0, No Iterations 0
diagonal:  Solving for f27.air3, Initial residual = 0, Final residual = 0, No Iterations 0
diagonal:  Solving for f28.air3, Initial residual = 0, Final residual = 0, No Iterations 0
bubbles sizeGroup phase fraction first, last = 3.44251e-13 0.046878
air1 sizeGroups-sum volume fraction, min, max = 1 1 1
air1 Sauter mean diameter, min, max = 0.325053 0.325053 0.325053
air2 sizeGroups-sum volume fraction, min, max = 1.00001 1.00001 1.00001
air2 Sauter mean diameter, min, max = 0.649725 0.649725 0.649725
air3 sizeGroups-sum volume fraction, min, max = 1.00022 1.00022 1.00022
air3 Sauter mean diameter, min, max = 1.22393 1.22393 1.22393
Constructing momentum equations
diagonal:  Solving for p_rgh, Initial residual = 0, Final residual = 0, No Iterations 0
ExecutionTime = 0.214385 s  ClockTime = 0 s

Courant Number mean: 0 max: 0
Time = 0.2s

PIMPLE: Iteration 1
MULES: Solving for alpha.air1
MULES: Solving for alpha.air2
MULES: Solving for alpha.air3
MULES: Solving for alpha.water
air1 fraction, min, max = 1.01675e-05 1.01675e-05 1.01675e-05
air2 fraction, min, max = 0.000574298 0.000574298 0.000574298
air3 fraction, min, max = 0.0494187 0.0494187 0.0494187
water fraction, min, max = 0.949998 0.949998 0.949998
Phase-sum volume fraction, min, max = 1 1 1
populationBalance bubbles: Iteration 1
diagonal:  Solving for f0.air1, Initial residual = 0, Final residual = 0, No Iterations 0
diagonal:  Solving for f1.air1, Initial residual = 0, Final residual = 0, No Iterations 0
diagonal:  Solving for f2.air1, Initial residual = 0, Final residual = 0, No Iterations 0
diagonal:  Solving for f3.air1, Initial residual = 0, Final residual = 0, No Iterations 0
diagonal:  Solving for f4.air1, Initial residual = 0, Final residual = 0, No Iterations 0
diagonal:  Solving for f5.air1, Initial residual = 0, Final residual = 0, No Iterations 0
diagonal:  Solving for f6.air1, Initial residual = 0, Final residual = 0, No Iterations 0
diagonal:  Solving for f7.air1, Initial residual = 0, Final residual = 0, No Iterations 0
diagonal:  Solving for f8.air1, Initial residual = 0, Final residual = 0, No Iterations 0
diagonal:  Solving for f9.air1, Initial residual = 0, Final residual = 0, No Iterations 0
diagonal:  Solving for f10.air1, Initial residual = 0, Final residual = 0, No Iterations 0
diagonal:  Solving for f11.air1, Initial residual = 0, Final residual = 0, No Iterations 0
diagonal:  Solving for f12.air1, Initial residual = 0, Final residual = 0, No Iterations 0
diagonal:  Solving for f13.air1, Initial residual = 0, Final residual = 0, No Iterations 0
diagonal:  Solving for f14.air1, Initial residual = 0, Final residual = 0, No Iterations 0
diagonal:  Solving for f15.air1, Initial residual = 0, Final residual = 0, No Iterations 0
diagonal:  Solving for f16.air1, Initial residual = 0, Final residual = 0, No Iterations 0
diagonal:  Solving for f17.air1, Initial residual = 0, Final residual = 0, No Iterations 0
diagonal:  Solving for f18.air1, Initial residual = 0, Final residual = 0, No Iterations 0
diagonal:  Solving for f19.air1, Initial residual = 0, Final residual = 0, No Iterations 0
diagonal:  Solving for f20.air2, Initial residual = 0, Final residual = 0, No Iterations 0
diagonal:  Solving for f21.air2, Initial residual = 0, Final residual = 0, No Iterations 0
diagonal:  Solving for f22.air2, Initial residual = 0, Final residual = 0, No Iterations 0
diagonal:  Solving for f23.air2, Initial residual = 0, Final residual = 0, No Iterations 0
diagonal:  Solving for f24.air2, Initial residual = 0, Final residual = 0, No Iterations 0
diagonal:  Solving for f25.air3, Initial residual = 0, Final residual = 0, No Iterations 0
diagonal:  Solving for f26.air3, Initial residual = 0, Final residual = 0, No Iterations 0
diagonal:  Solving for f27.air3, Initial residual = 0, Final residual = 0, No Iterations 0
diagonal:  Solving for f28.air3, Initial residual = 0, Final residual = 0, No Iterations 0
bubbles sizeGroup phase fraction first, last = 6.89749e-13 0.0440277
air1 sizeGroups-sum volume fraction, min, max = 1 1 1
air1 Sauter mean diameter, min, max = 0.325052 0.325052 0.325052
air2 sizeGroups-sum volume fraction, min, max = 1.00001 1.00001 1.00001
air2 Sauter mean diameter, min, max = 0.649594 0.649594 0.649594
air3 sizeGroups-sum volume fraction, min, max = 1.00361 1.00361 1.00361
air3 Sauter mean diameter, min, max = 1.20423 1.20423 1.20423
Constructing momentum equations
diagonal:  Solving for p_rgh, Initial residual = 0, Final residual = 0, No Iterations 0
PIMPLE: Iteration 2
MULES: Solving for alpha.air1
MULES: Solving for alpha.air2
MULES: Solving for alpha.air3
MULES: Solving for alpha.water
air1 fraction, min, max = 1.01501e-05 1.01501e-05 1.01501e-05
air2 fraction, min, max = 0.000571711 0.000571711 0.000571711
air3 fraction, min, max = 0.0494197 0.0494197 0.0494197
water fraction, min, max = 0.949998 0.949998 0.949998
Phase-sum volume fraction, min, max = 1 1 1
populationBalance bubbles: Iteration 1
diagonal:  Solving for f0.air1, Initial residual = 0, Final residual = 0, No Iterations 0
diagonal:  Solving for f1.air1, Initial residual = 0, Final residual = 0, No Iterations 0
diagonal:  Solving for f2.air1, Initial residual = 0, Final residual = 0, No Iterations 0
diagonal:  Solving for f3.air1, Initial residual = 0, Final residual = 0, No Iterations 0
diagonal:  Solving for f4.air1, Initial residual = 0, Final residual = 0, No Iterations 0
diagonal:  Solving for f5.air1, Initial residual = 0, Final residual = 0, No Iterations 0
diagonal:  Solving for f6.air1, Initial residual = 0, Final residual = 0, No Iterations 0
diagonal:  Solving for f7.air1, Initial residual = 0, Final residual = 0, No Iterations 0
diagonal:  Solving for f8.air1, Initial residual = 0, Final residual = 0, No Iterations 0
diagonal:  Solving for f9.air1, Initial residual = 0, Final residual = 0, No Iterations 0
diagonal:  Solving for f10.air1, Initial residual = 0, Final residual = 0, No Iterations 0
diagonal:  Solving for f11.air1, Initial residual = 0, Final residual = 0, No Iterations 0
diagonal:  Solving for f12.air1, Initial residual = 0, Final residual = 0, No Iterations 0
diagonal:  Solving for f13.air1, Initial residual = 0, Final residual = 0, No Iterations 0
diagonal:  Solving for f14.air1, Initial residual = 0, Final residual = 0, No Iterations 0
diagonal:  Solving for f15.air1, Initial residual = 0, Final residual = 0, No Iterations 0
diagonal:  Solving for f16.air1, Initial residual = 0, Final residual = 0, No Iterations 0
diagonal:  Solving for f17.air1, Initial residual = 0, Final residual = 0, No Iterations 0
diagonal:  Solving for f18.air1, Initial residual = 0, Final residual = 0, No Iterations 0
diagonal:  Solving for f19.air1, Initial residual = 0, Final residual = 0, No Iterations 0
diagonal:  Solving for f20.air2, Initial residual = 0, Final residual = 0, No Iterations 0
diagonal:  Solving for f21.air2, Initial residual = 0, Final residual = 0, No Iterations 0
diagonal:  Solving for f22.air2, Initial residual = 0, Final residual = 0, No Iterations 0
diagonal:  Solving for f23.air2, Initial residual = 0, Final residual = 0, No Iterations 0
diagonal:  Solving for f24.air2, Initial residual = 0, Final residual = 0, No Iterations 0
diagonal:  Solving for f25.air3, Initial residual = 0, Final residual = 0, No Iterations 0
diagonal:  Solving for f26.air3, Initial residual = 0, Final residual = 0, No Iterations 0
diagonal:  Solving for f27.air3, Initial residual = 0, Final residual = 0, No Iterations 0
diagonal:  Solving for f28.air3, Initial residual = 0, Final residual = 0, No Iterations 0
bubbles sizeGroup phase fraction first, last = 6.88566e-13 0.0439513
air1 sizeGroups-sum volume fraction, min, max = 1 1 1
air1 Sauter mean diameter, min, max = 0.325052 0.325052 0.325052
air2 sizeGroups-sum volume fraction, min, max = 1 1 1
air2 Sauter mean diameter, min, max = 0.649597 0.649597 0.649597
air3 sizeGroups-sum volume fraction, min, max = 1.00044 1.00044 1.00044
air3 Sauter mean diameter, min, max = 1.20826 1.20826 1.20826
Constructing momentum equations
diagonal:  Solving for p_rgh, Initial residual = 0, Final residual = 0, No Iterations 0
ExecutionTime = 0.226961 s  ClockTime = 0 s

Courant Number mean: 0 max: 0
Time = 0.3s

PIMPLE: Iteration 1
MULES: Solving for alpha.air1
MULES: Solving for alpha.air2
MULES: Solving for alpha.air3
MULES: Solving for alpha.water
air1 fraction, min, max = 1.52421e-05 1.52421e-05 1.52421e-05
air2 fraction, min, max = 0.000856827 0.000856827 0.000856827
air3 fraction, min, max = 0.0491311 0.0491311 0.0491311
water fraction, min, max = 0.949998 0.949998 0.949998
Phase-sum volume fraction, min, max = 1 1 1
populationBalance bubbles: Iteration 1
diagonal:  Solving for f0.air1, Initial residual = 0, Final residual = 0, No Iterations 0
diagonal:  Solving for f1.air1, Initial residual = 0, Final residual = 0, No Iterations 0
diagonal:  Solving for f2.air1, Initial residual = 0, Final residual = 0, No Iterations 0
diagonal:  Solving for f3.air1, Initial residual = 0, Final residual = 0, No Iterations 0
diagonal:  Solving for f4.air1, Initial residual = 0, Final residual = 0, No Iterations 0
diagonal:  Solving for f5.air1, Initial residual = 0, Final residual = 0, No Iterations 0
diagonal:  Solving for f6.air1, Initial residual = 0, Final residual = 0, No Iterations 0
diagonal:  Solving for f7.air1, Initial residual = 0, Final residual = 0, No Iterations 0
diagonal:  Solving for f8.air1, Initial residual = 0, Final residual = 0, No Iterations 0
diagonal:  Solving for f9.air1, Initial residual = 0, Final residual = 0, No Iterations 0
diagonal:  Solving for f10.air1, Initial residual = 0, Final residual = 0, No Iterations 0
diagonal:  Solving for f11.air1, Initial residual = 0, Final residual = 0, No Iterations 0
diagonal:  Solving for f12.air1, Initial residual = 0, Final residual = 0, No Iterations 0
diagonal:  Solving for f13.air1, Initial residual = 0, Final residual = 0, No Iterations 0
diagonal:  Solving for f14.air1, Initial residual = 0, Final residual = 0, No Iterations 0
diagonal:  Solving for f15.air1, Initial residual = 0, Final residual = 0, No Iterations 0
diagonal:  Solving for f16.air1, Initial residual = 0, Final residual = 0, No Iterations 0
diagonal:  Solving for f17.air1, Initial residual = 0, Final residual = 0, No Iterations 0
diagonal:  Solving for f18.air1, Initial residual = 0, Final residual = 0, No Iterations 0
diagonal:  Solving for f19.air1, Initial residual = 0, Final residual = 0, No Iterations 0
diagonal:  Solving for f20.air2, Initial residual = 0, Final residual = 0, No Iterations 0
diagonal:  Solving for f21.air2, Initial residual = 0, Final residual = 0, No Iterations 0
diagonal:  Solving for f22.air2, Initial residual = 0, Final residual = 0, No Iterations 0
diagonal:  Solving for f23.air2, Initial residual = 0, Final residual = 0, No Iterations 0
diagonal:  Solving for f24.air2, Initial residual = 0, Final residual = 0, No Iterations 0
diagonal:  Solving for f25.air3, Initial residual = 0, Final residual = 0, No Iterations 0
diagonal:  Solving for f26.air3, Initial residual = 0, Final residual = 0, No Iterations 0
diagonal:  Solving for f27.air3, Initial residual = 0, Final residual = 0, No Iterations 0
diagonal:  Solving for f28.air3, Initial residual = 0, Final residual = 0, No Iterations 0
bubbles sizeGroup phase fraction first, last = 1.03406e-12 0.041279
air1 sizeGroups-sum volume fraction, min, max = 1 1 1
air1 Sauter mean diameter, min, max = 0.325051 0.325051 0.325051
air2 sizeGroups-sum volume fraction, min, max = 1 1 1
air2 Sauter mean diameter, min, max = 0.649465 0.649465 0.649465
air3 sizeGroups-sum volume fraction, min, max = 1.00366 1.00366 1.00366
air3 Sauter mean diameter, min, max = 1.18989 1.18989 1.18989
Constructing momentum equations
diagonal:  Solving for p_rgh, Initial residual = 0, Final residual = 0, No Iterations 0
PIMPLE: Iteration 2
MULES: Solving for alpha.air1
MULES: Solving for alpha.air2
MULES: Solving for alpha.air3
MULES: Solving for alpha.water
air1 fraction, min, max = 1.52259e-05 1.52259e-05 1.52259e-05
air2 fraction, min, max = 0.000854319 0.000854319 0.000854319
air3 fraction, min, max = 0.049132 0.049132 0.049132
water fraction, min, max = 0.949998 0.949998 0.949998
Phase-sum volume fraction, min, max = 1 1 1
populationBalance bubbles: Iteration 1
diagonal:  Solving for f0.air1, Initial residual = 0, Final residual = 0, No Iterations 0
diagonal:  Solving for f1.air1, Initial residual = 0, Final residual = 0, No Iterations 0
diagonal:  Solving for f2.air1, Initial residual = 0, Final residual = 0, No Iterations 0
diagonal:  Solving for f3.air1, Initial residual = 0, Final residual = 0, No Iterations 0
diagonal:  Solving for f4.air1, Initial residual = 0, Final residual = 0, No Iterations 0
diagonal:  Solving for f5.air1, Initial residual = 0, Final residual = 0, No Iterations 0
diagonal:  Solving for f6.air1, Initial residual = 0, Final residual = 0, No Iterations 0
diagonal:  Solving for f7.air1, Initial residual = 0, Final residual = 0, No Iterations 0
diagonal:  Solving for f8.air1, Initial residual = 0, Final residual = 0, No Iterations 0
diagonal:  Solving for f9.air1, Initial residual = 0, Final residual = 0, No Iterations 0
diagonal:  Solving for f10.air1, Initial residual = 0, Final residual = 0, No Iterations 0
diagonal:  Solving for f11.air1, Initial residual = 0, Final residual = 0, No Iterations 0
diagonal:  Solving for f12.air1, Initial residual = 0, Final residual = 0, No Iterations 0
diagonal:  Solving for f13.air1, Initial residual = 0, Final residual = 0, No Iterations 0
diagonal:  Solving for f14.air1, Initial residual = 0, Final residual = 0, No Iterations 0
diagonal:  Solving for f15.air1, Initial residual = 0, Final residual = 0, No Iterations 0
diagonal:  Solving for f16.air1, Initial residual = 0, Final residual = 0, No Iterations 0
diagonal:  Solving for f17.air1, Initial residual = 0, Final residual = 0, No Iterations 0
diagonal:  Solving for f18.air1, Initial residual = 0, Final residual = 0, No Iterations 0
diagonal:  Solving for f19.air1, Initial residual = 0, Final residual = 0, No Iterations 0
diagonal:  Solving for f20.air2, Initial residual = 0, Final residual = 0, No Iterations 0
diagonal:  Solving for f21.air2, Initial residual = 0, Final residual = 0, No Iterations 0
diagonal:  Solving for f22.air2, Initial residual = 0, Final residual = 0, No Iterations 0
diagonal:  Solving for f23.air2, Initial residual = 0, Final residual = 0, No Iterations 0
diagonal:  Solving for f24.air2, Initial residual = 0, Final residual = 0, No Iterations 0
diagonal:  Solving for f25.air3, Initial residual = 0, Final residual = 0, No Iterations 0
diagonal:  Solving for f26.air3, Initial residual = 0, Final residual = 0, No Iterations 0
diagonal:  Solving for f27.air3, Initial residual = 0, Final residual = 0, No Iterations 0
diagonal:  Solving for f28.air3, Initial residual = 0, Final residual = 0, No Iterations 0
bubbles sizeGroup phase fraction first, last = 1.03296e-12 0.0412073
air1 sizeGroups-sum volume fraction, min, max = 1 1 1
air1 Sauter mean diameter, min, max = 0.325051 0.325051 0.325051
air2 sizeGroups-sum volume fraction, min, max = 1 1 1
air2 Sauter mean diameter, min, max = 0.649468 0.649468 0.649468
air3 sizeGroups-sum volume fraction, min, max = 1.00065 1.00065 1.00065
air3 Sauter mean diameter, min, max = 1.19363 1.19363 1.19363
Constructing momentum equations
diagonal:  Solving for p_rgh, Initial residual = 0, Final residual = 0, No Iterations 0
ExecutionTime = 0.239725 s  ClockTime = 0 s

Courant Number mean: 0 max: 0
Time = 0.4s

PIMPLE: Iteration 1
MULES: Solving for alpha.air1
MULES: Solving for alpha.air2
MULES: Solving for alpha.air3
MULES: Solving for alpha.water
air1 fraction, min, max = 2.03176e-05 2.03176e-05 2.03176e-05
air2 fraction, min, max = 0.00113776 0.00113776 0.00113776
air3 fraction, min, max = 0.0488451 0.0488451 0.0488451
water fraction, min, max = 0.949998 0.949998 0.949998
Phase-sum volume fraction, min, max = 1 1 1
populationBalance bubbles: Iteration 1
diagonal:  Solving for f0.air1, Initial residual = 0, Final residual = 0, No Iterations 0
diagonal:  Solving for f1.air1, Initial residual = 0, Final residual = 0, No Iterations 0
diagonal:  Solving for f2.air1, Initial residual = 0, Final residual = 0, No Iterations 0
diagonal:  Solving for f3.air1, Initial residual = 0, Final residual = 0, No Iterations 0
diagonal:  Solving for f4.air1, Initial residual = 0, Final residual = 0, No Iterations 0
diagonal:  Solving for f5.air1, Initial residual = 0, Final residual = 0, No Iterations 0
diagonal:  Solving for f6.air1, Initial residual = 0, Final residual = 0, No Iterations 0
diagonal:  Solving for f7.air1, Initial residual = 0, Final residual = 0, No Iterations 0
diagonal:  Solving for f8.air1, Initial residual = 0, Final residual = 0, No Iterations 0
diagonal:  Solving for f9.air1, Initial residual = 0, Final residual = 0, No Iterations 0
diagonal:  Solving for f10.air1, Initial residual = 0, Final residual = 0, No Iterations 0
diagonal:  Solving for f11.air1, Initial residual = 0, Final residual = 0, No Iterations 0
diagonal:  Solving for f12.air1, Initial residual = 0, Final residual = 0, No Iterations 0
diagonal:  Solving for f13.air1, Initial residual = 0, Final residual = 0, No Iterations 0
diagonal:  Solving for f14.air1, Initial residual = 0, Final residual = 0, No Iterations 0
diagonal:  Solving for f15.air1, Initial residual = 0, Final residual = 0, No Iterations 0
diagonal:  Solving for f16.air1, Initial residual = 0, Final residual = 0, No Iterations 0
diagonal:  Solving for f17.air1, Initial residual = 0, Final residual = 0, No Iterations 0
diagonal:  Solving for f18.air1, Initial residual = 0, Final residual = 0, No Iterations 0
diagonal:  Solving for f19.air1, Initial residual = 0, Final residual = 0, No Iterations 0
diagonal:  Solving for f20.air2, Initial residual = 0, Final residual = 0, No Iterations 0
diagonal:  Solving for f21.air2, Initial residual = 0, Final residual = 0, No Iterations 0
diagonal:  Solving for f22.air2, Initial residual = 0, Final residual = 0, No Iterations 0
diagonal:  Solving for f23.air2, Initial residual = 0, Final residual = 0, No Iterations 0
diagonal:  Solving for f24.air2, Initial residual = 0, Final residual = 0, No Iterations 0
diagonal:  Solving for f25.air3, Initial residual = 0, Final residual = 0, No Iterations 0
diagonal:  Solving for f26.air3, Initial residual = 0, Final residual = 0, No Iterations 0
diagonal:  Solving for f27.air3, Initial residual = 0, Final residual = 0, No Iterations 0
diagonal:  Solving for f28.air3, Initial residual = 0, Final residual = 0, No Iterations 0
bubbles sizeGroup phase fraction first, last = 1.37846e-12 0.0387019
air1 sizeGroups-sum volume fraction, min, max = 1 1 1
air1 Sauter mean diameter, min, max = 0.325049 0.325049 0.325049
air2 sizeGroups-sum volume fraction, min, max = 1 1 1
air2 Sauter mean diameter, min, max = 0.649336 0.649336 0.649336
air3 sizeGroups-sum volume fraction, min, max = 1.00371 1.00371 1.00371
air3 Sauter mean diameter, min, max = 1.17645 1.17645 1.17645
Constructing momentum equations
diagonal:  Solving for p_rgh, Initial residual = 0, Final residual = 0, No Iterations 0
PIMPLE: Iteration 2
MULES: Solving for alpha.air1
MULES: Solving for alpha.air2
MULES: Solving for alpha.air3
MULES: Solving for alpha.water
air1 fraction, min, max = 2.03023e-05 2.03023e-05 2.03023e-05
air2 fraction, min, max = 0.00113531 0.00113531 0.00113531
air3 fraction, min, max = 0.0488459 0.0488459 0.0488459
water fraction, min, max = 0.949998 0.949998 0.949998
Phase-sum volume fraction, min, max = 1 1 1
populationBalance bubbles: Iteration 1
diagonal:  Solving for f0.air1, Initial residual = 0, Final residual = 0, No Iterations 0
diagonal:  Solving for f1.air1, Initial residual = 0, Final residual = 0, No Iterations 0
diagonal:  Solving for f2.air1, Initial residual = 0, Final residual = 0, No Iterations 0
diagonal:  Solving for f3.air1, Initial residual = 0, Final residual = 0, No Iterations 0
diagonal:  Solving for f4.air1, Initial residual = 0, Final residual = 0, No Iterations 0
diagonal:  Solving for f5.air1, Initial residual = 0, Final residual = 0, No Iterations 0
diagonal:  Solving for f6.air1, Initial residual = 0, Final residual = 0, No Iterations 0
diagonal:  Solving for f7.air1, Initial residual = 0, Final residual = 0, No Iterations 0
diagonal:  Solving for f8.air1, Initial residual = 0, Final residual = 0, No Iterations 0
diagonal:  Solving for f9.air1, Initial residual = 0, Final residual = 0, No Iterations 0
diagonal:  Solving for f10.air1, Initial residual = 0, Final residual = 0, No Iterations 0
diagonal:  Solving for f11.air1, Initial residual = 0, Final residual = 0, No Iterations 0
diagonal:  Solving for f12.air1, Initial residual = 0, Final residual = 0, No Iterations 0
diagonal:  Solving for f13.air1, Initial residual = 0, Final residual = 0, No Iterations 0
diagonal:  Solving for f14.air1, Initial residual = 0, Final residual = 0, No Iterations 0
diagonal:  Solving for f15.air1, Initial residual = 0, Final residual = 0, No Iterations 0
diagonal:  Solving for f16.air1, Initial residual = 0, Final residual = 0, No Iterations 0
diagonal:  Solving for f17.air1, Initial residual = 0, Final residual = 0, No Iterations 0
diagonal:  Solving for f18.air1, Initial residual = 0, Final residual = 0, No Iterations 0
diagonal:  Solving for f19.air1, Initial residual = 0, Final residual = 0, No Iterations 0
diagonal:  Solving for f20.air2, Initial residual = 0, Final residual = 0, No Iterations 0
diagonal:  Solving for f21.air2, Initial residual = 0, Final residual = 0, No Iterations 0
diagonal:  Solving for f22.air2, Initial residual = 0, Final residual = 0, No Iterations 0
diagonal:  Solving for f23.air2, Initial residual = 0, Final residual = 0, No Iterations 0
diagonal:  Solving for f24.air2, Initial residual = 0, Final residual = 0, No Iterations 0
diagonal:  Solving for f25.air3, Initial residual = 0, Final residual = 0, No Iterations 0
diagonal:  Solving for f26.air3, Initial residual = 0, Final residual = 0, No Iterations 0
diagonal:  Solving for f27.air3, Initial residual = 0, Final residual = 0, No Iterations 0
diagonal:  Solving for f28.air3, Initial residual = 0, Final residual = 0, No Iterations 0
bubbles sizeGroup phase fraction first, last = 1.37742e-12 0.0386346
air1 sizeGroups-sum volume fraction, min, max = 1 1 1
air1 Sauter mean diameter, min, max = 0.325049 0.325049 0.325049
air2 sizeGroups-sum volume fraction, min, max = 1 1 1
air2 Sauter mean diameter, min, max = 0.649338 0.649338 0.649338
air3 sizeGroups-sum volume fraction, min, max = 1.00086 1.00086 1.00086
air3 Sauter mean diameter, min, max = 1.17993 1.17993 1.17993
Constructing momentum equations
diagonal:  Solving for p_rgh, Initial residual = 0, Final residual = 0, No Iterations 0
ExecutionTime = 0.252776 s  ClockTime = 0 s

Courant Number mean: 0 max: 0
Time = 0.5s

PIMPLE: Iteration 1
MULES: Solving for alpha.air1
MULES: Solving for alpha.air2
MULES: Solving for alpha.air3
MULES: Solving for alpha.water
air1 fraction, min, max = 2.53936e-05 2.53936e-05 2.53936e-05
air2 fraction, min, max = 0.00141709 0.00141709 0.00141709
air3 fraction, min, max = 0.0485606 0.0485606 0.0485606
water fraction, min, max = 0.949998 0.949998 0.949998
Phase-sum volume fraction, min, max = 1 1 1
populationBalance bubbles: Iteration 1
diagonal:  Solving for f0.air1, Initial residual = 0, Final residual = 0, No Iterations 0
diagonal:  Solving for f1.air1, Initial residual = 0, Final residual = 0, No Iterations 0
diagonal:  Solving for f2.air1, Initial residual = 0, Final residual = 0, No Iterations 0
diagonal:  Solving for f3.air1, Initial residual = 0, Final residual = 0, No Iterations 0
diagonal:  Solving for f4.air1, Initial residual = 0, Final residual = 0, No Iterations 0
diagonal:  Solving for f5.air1, Initial residual = 0, Final residual = 0, No Iterations 0
diagonal:  Solving for f6.air1, Initial residual = 0, Final residual = 0, No Iterations 0
diagonal:  Solving for f7.air1, Initial residual = 0, Final residual = 0, No Iterations 0
diagonal:  Solving for f8.air1, Initial residual = 0, Final residual = 0, No Iterations 0
diagonal:  Solving for f9.air1, Initial residual = 0, Final residual = 0, No Iterations 0
diagonal:  Solving for f10.air1, Initial residual = 0, Final residual = 0, No Iterations 0
diagonal:  Solving for f11.air1, Initial residual = 0, Final residual = 0, No Iterations 0
diagonal:  Solving for f12.air1, Initial residual = 0, Final residual = 0, No Iterations 0
diagonal:  Solving for f13.air1, Initial residual = 0, Final residual = 0, No Iterations 0
diagonal:  Solving for f14.air1, Initial residual = 0, Final residual = 0, No Iterations 0
diagonal:  Solving for f15.air1, Initial residual = 0, Final residual = 0, No Iterations 0
diagonal:  Solving for f16.air1, Initial residual = 0, Final residual = 0, No Iterations 0
diagonal:  Solving for f17.air1, Initial residual = 0, Final residual = 0, No Iterations 0
diagonal:  Solving for f18.air1, Initial residual = 0, Final residual = 0, No Iterations 0
diagonal:  Solving for f19.air1, Initial residual = 0, Final residual = 0, No Iterations 0
diagonal:  Solving for f20.air2, Initial residual = 0, Final residual = 0, No Iterations 0
diagonal:  Solving for f21.air2, Initial residual = 0, Final residual = 0, No Iterations 0
diagonal:  Solving for f22.air2, Initial residual = 0, Final residual = 0, No Iterations 0
diagonal:  Solving for f23.air2, Initial residual = 0, Final residual = 0, No Iterations 0
diagonal:  Solving for f24.air2, Initial residual = 0, Final residual = 0, No Iterations 0
diagonal:  Solving for f25.air3, Initial residual = 0, Final residual = 0, No Iterations 0
diagonal:  Solving for f26.air3, Initial residual = 0, Final residual = 0, No Iterations 0
diagonal:  Solving for f27.air3, Initial residual = 0, Final residual = 0, No Iterations 0
diagonal:  Solving for f28.air3, Initial residual = 0, Final residual = 0, No Iterations 0
bubbles sizeGroup phase fraction first, last = 1.72293e-12 0.0362856
air1 sizeGroups-sum volume fraction, min, max = 1 1 1
air1 Sauter mean diameter, min, max = 0.325048 0.325048 0.325048
air2 sizeGroups-sum volume fraction, min, max = 1 1 1
air2 Sauter mean diameter, min, max = 0.649206 0.649206 0.649206
air3 sizeGroups-sum volume fraction, min, max = 1.00377 1.00377 1.00377
air3 Sauter mean diameter, min, max = 1.16385 1.16385 1.16385
Constructing momentum equations
diagonal:  Solving for p_rgh, Initial residual = 0, Final residual = 0, No Iterations 0
PIMPLE: Iteration 2
MULES: Solving for alpha.air1
MULES: Solving for alpha.air2
MULES: Solving for alpha.air3
MULES: Solving for alpha.water
air1 fraction, min, max = 2.53791e-05 2.53791e-05 2.53791e-05
air2 fraction, min, max = 0.0014147 0.0014147 0.0014147
air3 fraction, min, max = 0.0485614 0.0485614 0.0485614
water fraction, min, max = 0.949998 0.949998 0.949998
Phase-sum volume fraction, min, max = 1 1 1
populationBalance bubbles: Iteration 1
diagonal:  Solving for f0.air1, Initial residual = 0, Final residual = 0, No Iterations 0
diagonal:  Solving for f1.air1, Initial residual = 0, Final residual = 0, No Iterations 0
diagonal:  Solving for f2.air1, Initial residual = 0, Final residual = 0, No Iterations 0
diagonal:  Solving for f3.air1, Initial residual = 0, Final residual = 0, No Iterations 0
diagonal:  Solving for f4.air1, Initial residual = 0, Final residual = 0, No Iterations 0
diagonal:  Solving for f5.air1, Initial residual = 0, Final residual = 0, No Iterations 0
diagonal:  Solving for f6.air1, Initial residual = 0, Final residual = 0, No Iterations 0
diagonal:  Solving for f7.air1, Initial residual = 0, Final residual = 0, No Iterations 0
diagonal:  Solving for f8.air1, Initial residual = 0, Final residual = 0, No Iterations 0
diagonal:  Solving for f9.air1, Initial residual = 0, Final residual = 0, No Iterations 0
diagonal:  Solving for f10.air1, Initial residual = 0, Final residual = 0, No Iterations 0
diagonal:  Solving for f11.air1, Initial residual = 0, Final residual = 0, No Iterations 0
diagonal:  Solving for f12.air1, Initial residual = 0, Final residual = 0, No Iterations 0
diagonal:  Solving for f13.air1, Initial residual = 0, Final residual = 0, No Iterations 0
diagonal:  Solving for f14.air1, Initial residual = 0, Final residual = 0, No Iterations 0
diagonal:  Solving for f15.air1, Initial residual = 0, Final residual = 0, No Iterations 0
diagonal:  Solving for f16.air1, Initial residual = 0, Final residual = 0, No Iterations 0
diagonal:  Solving for f17.air1, Initial residual = 0, Final residual = 0, No Iterations 0
diagonal:  Solving for f18.air1, Initial residual = 0, Final residual = 0, No Iterations 0
diagonal:  Solving for f19.air1, Initial residual = 0, Final residual = 0, No Iterations 0
diagonal:  Solving for f20.air2, Initial residual = 0, Final residual = 0, No Iterations 0
diagonal:  Solving for f21.air2, Initial residual = 0, Final residual = 0, No Iterations 0
diagonal:  Solving for f22.air2, Initial residual = 0, Final residual = 0, No Iterations 0
diagonal:  Solving for f23.air2, Initial residual = 0, Final residual = 0, No Iterations 0
diagonal:  Solving for f24.air2, Initial residual = 0, Final residual = 0, No Iterations 0
diagonal:  Solving for f25.air3, Initial residual = 0, Final residual = 0, No Iterations 0
diagonal:  Solving for f26.air3, Initial residual = 0, Final residual = 0, No Iterations 0
diagonal:  Solving for f27.air3, Initial residual = 0, Final residual = 0, No Iterations 0
diagonal:  Solving for f28.air3, Initial residual = 0, Final residual = 0, No Iterations 0
bubbles sizeGroup phase fraction first, last = 1.72194e-12 0.0362225
air1 sizeGroups-sum volume fraction, min, max = 1 1 1
air1 Sauter mean diameter, min, max = 0.325048 0.325048 0.325048
air2 sizeGroups-sum volume fraction, min, max = 1 1 1
air2 Sauter mean diameter, min, max = 0.649208 0.649208 0.649208
air3 sizeGroups-sum volume fraction, min, max = 1.00105 1.00105 1.00105
air3 Sauter mean diameter, min, max = 1.16709 1.16709 1.16709
Constructing momentum equations
diagonal:  Solving for p_rgh, Initial residual = 0, Final residual = 0, No Iterations 0
ExecutionTime = 0.265046 s  ClockTime = 0 s

Courant Number mean: 0 max: 0
Time = 0.6s

PIMPLE: Iteration 1
MULES: Solving for alpha.air1
MULES: Solving for alpha.air2
MULES: Solving for alpha.air3
MULES: Solving for alpha.water
air1 fraction, min, max = 3.04701e-05 3.04701e-05 3.04701e-05
air2 fraction, min, max = 0.00169482 0.00169482 0.00169482
air3 fraction, min, max = 0.0482778 0.0482778 0.0482778
water fraction, min, max = 0.949998 0.949998 0.949998
Phase-sum volume fraction, min, max = 1 1 1
populationBalance bubbles: Iteration 1
diagonal:  Solving for f0.air1, Initial residual = 0, Final residual = 0, No Iterations 0
diagonal:  Solving for f1.air1, Initial residual = 0, Final residual = 0, No Iterations 0
diagonal:  Solving for f2.air1, Initial residual = 0, Final residual = 0, No Iterations 0
diagonal:  Solving for f3.air1, Initial residual = 0, Final residual = 0, No Iterations 0
diagonal:  Solving for f4.air1, Initial residual = 0, Final residual = 0, No Iterations 0
diagonal:  Solving for f5.air1, Initial residual = 0, Final residual = 0, No Iterations 0
diagonal:  Solving for f6.air1, Initial residual = 0, Final residual = 0, No Iterations 0
diagonal:  Solving for f7.air1, Initial residual = 0, Final residual = 0, No Iterations 0
diagonal:  Solving for f8.air1, Initial residual = 0, Final residual = 0, No Iterations 0
diagonal:  Solving for f9.air1, Initial residual = 0, Final residual = 0, No Iterations 0
diagonal:  Solving for f10.air1, Initial residual = 0, Final residual = 0, No Iterations 0
diagonal:  Solving for f11.air1, Initial residual = 0, Final residual = 0, No Iterations 0
diagonal:  Solving for f12.air1, Initial residual = 0, Final residual = 0, No Iterations 0
diagonal:  Solving for f13.air1, Initial residual = 0, Final residual = 0, No Iterations 0
diagonal:  Solving for f14.air1, Initial residual = 0, Final residual = 0, No Iterations 0
diagonal:  Solving for f15.air1, Initial residual = 0, Final residual = 0, No Iterations 0
diagonal:  Solving for f16.air1, Initial residual = 0, Final residual = 0, No Iterations 0
diagonal:  Solving for f17.air1, Initial residual = 0, Final residual = 0, No Iterations 0
diagonal:  Solving for f18.air1, Initial residual = 0, Final residual = 0, No Iterations 0
diagonal:  Solving for f19.air1, Initial residual = 0, Final residual = 0, No Iterations 0
diagonal:  Solving for f20.air2, Initial residual = 0, Final residual = 0, No Iterations 0
diagonal:  Solving for f21.air2, Initial residual = 0, Final residual = 0, No Iterations 0
diagonal:  Solving for f22.air2, Initial residual = 0, Final residual = 0, No Iterations 0
diagonal:  Solving for f23.air2, Initial residual = 0, Final residual = 0, No Iterations 0
diagonal:  Solving for f24.air2, Initial residual = 0, Final residual = 0, No Iterations 0
diagonal:  Solving for f25.air3, Initial residual = 0, Final residual = 0, No Iterations 0
diagonal:  Solving for f26.air3, Initial residual = 0, Final residual = 0, No Iterations 0
diagonal:  Solving for f27.air3, Initial residual = 0, Final residual = 0, No Iterations 0
diagonal:  Solving for f28.air3, Initial residual = 0, Final residual = 0, No Iterations 0
bubbles sizeGroup phase fraction first, last = 2.06746e-12 0.0340202
air1 sizeGroups-sum volume fraction, min, max = 1 1 1
air1 Sauter mean diameter, min, max = 0.325047 0.325047 0.325047
air2 sizeGroups-sum volume fraction, min, max = 1 1 1
air2 Sauter mean diameter, min, max = 0.649076 0.649076 0.649076
air3 sizeGroups-sum volume fraction, min, max = 1.00382 1.00382 1.00382
air3 Sauter mean diameter, min, max = 1.15201 1.15201 1.15201
Constructing momentum equations
diagonal:  Solving for p_rgh, Initial residual = 0, Final residual = 0, No Iterations 0
PIMPLE: Iteration 2
MULES: Solving for alpha.air1
MULES: Solving for alpha.air2
MULES: Solving for alpha.air3
MULES: Solving for alpha.water
air1 fraction, min, max = 3.04563e-05 3.04563e-05 3.04563e-05
air2 fraction, min, max = 0.00169248 0.00169248 0.00169248
air3 fraction, min, max = 0.0482786 0.0482786 0.0482786
water fraction, min, max = 0.949998 0.949998 0.949998
Phase-sum volume fraction, min, max = 1 1 1
populationBalance bubbles: Iteration 1
diagonal:  Solving for f0.air1, Initial residual = 0, Final residual = 0, No Iterations 0
diagonal:  Solving for f1.air1, Initial residual = 0, Final residual = 0, No Iterations 0
diagonal:  Solving for f2.air1, Initial residual = 0, Final residual = 0, No Iterations 0
diagonal:  Solving for f3.air1, Initial residual = 0, Final residual = 0, No Iterations 0
diagonal:  Solving for f4.air1, Initial residual = 0, Final residual = 0, No Iterations 0
diagonal:  Solving for f5.air1, Initial residual = 0, Final residual = 0, No Iterations 0
diagonal:  Solving for f6.air1, Initial residual = 0, Final residual = 0, No Iterations 0
diagonal:  Solving for f7.air1, Initial residual = 0, Final residual = 0, No Iterations 0
diagonal:  Solving for f8.air1, Initial residual = 0, Final residual = 0, No Iterations 0
diagonal:  Solving for f9.air1, Initial residual = 0, Final residual = 0, No Iterations 0
diagonal:  Solving for f10.air1, Initial residual = 0, Final residual = 0, No Iterations 0
diagonal:  Solving for f11.air1, Initial residual = 0, Final residual = 0, No Iterations 0
diagonal:  Solving for f12.air1, Initial residual = 0, Final residual = 0, No Iterations 0
diagonal:  Solving for f13.air1, Initial residual = 0, Final residual = 0, No Iterations 0
diagonal:  Solving for f14.air1, Initial residual = 0, Final residual = 0, No Iterations 0
diagonal:  Solving for f15.air1, Initial residual = 0, Final residual = 0, No Iterations 0
diagonal:  Solving for f16.air1, Initial residual = 0, Final residual = 0, No Iterations 0
diagonal:  Solving for f17.air1, Initial residual = 0, Final residual = 0, No Iterations 0
diagonal:  Solving for f18.air1, Initial residual = 0, Final residual = 0, No Iterations 0
diagonal:  Solving for f19.air1, Initial residual = 0, Final residual = 0, No Iterations 0
diagonal:  Solving for f20.air2, Initial residual = 0, Final residual = 0, No Iterations 0
diagonal:  Solving for f21.air2, Initial residual = 0, Final residual = 0, No Iterations 0
diagonal:  Solving for f22.air2, Initial residual = 0, Final residual = 0, No Iterations 0
diagonal:  Solving for f23.air2, Initial residual = 0, Final residual = 0, No Iterations 0
diagonal:  Solving for f24.air2, Initial residual = 0, Final residual = 0, No Iterations 0
diagonal:  Solving for f25.air3, Initial residual = 0, Final residual = 0, No Iterations 0
diagonal:  Solving for f26.air3, Initial residual = 0, Final residual = 0, No Iterations 0
diagonal:  Solving for f27.air3, Initial residual = 0, Final residual = 0, No Iterations 0
diagonal:  Solving for f28.air3, Initial residual = 0, Final residual = 0, No Iterations 0
bubbles sizeGroup phase fraction first, last = 2.06653e-12 0.0339609
air1 sizeGroups-sum volume fraction, min, max = 1 1 1
air1 Sauter mean diameter, min, max = 0.325047 0.325047 0.325047
air2 sizeGroups-sum volume fraction, min, max = 1 1 1
air2 Sauter mean diameter, min, max = 0.649078 0.649078 0.649078
air3 sizeGroups-sum volume fraction, min, max = 1.00123 1.00123 1.00123
air3 Sauter mean diameter, min, max = 1.15503 1.15503 1.15503
Constructing momentum equations
diagonal:  Solving for p_rgh, Initial residual = 0, Final residual = 0, No Iterations 0
ExecutionTime = 0.277639 s  ClockTime = 0 s

Courant Number mean: 0 max: 0
Time = 0.7s

PIMPLE: Iteration 1
MULES: Solving for alpha.air1
MULES: Solving for alpha.air2
MULES: Solving for alpha.air3
MULES: Solving for alpha.water
air1 fraction, min, max = 3.55469e-05 3.55469e-05 3.55469e-05
air2 fraction, min, max = 0.00197096 0.00197096 0.00197096
air3 fraction, min, max = 0.0479966 0.0479966 0.0479966
water fraction, min, max = 0.949998 0.949998 0.949998
Phase-sum volume fraction, min, max = 1 1 1
populationBalance bubbles: Iteration 1
diagonal:  Solving for f0.air1, Initial residual = 0, Final residual = 0, No Iterations 0
diagonal:  Solving for f1.air1, Initial residual = 0, Final residual = 0, No Iterations 0
diagonal:  Solving for f2.air1, Initial residual = 0, Final residual = 0, No Iterations 0
diagonal:  Solving for f3.air1, Initial residual = 0, Final residual = 0, No Iterations 0
diagonal:  Solving for f4.air1, Initial residual = 0, Final residual = 0, No Iterations 0
diagonal:  Solving for f5.air1, Initial residual = 0, Final residual = 0, No Iterations 0
diagonal:  Solving for f6.air1, Initial residual = 0, Final residual = 0, No Iterations 0
diagonal:  Solving for f7.air1, Initial residual = 0, Final residual = 0, No Iterations 0
diagonal:  Solving for f8.air1, Initial residual = 0, Final residual = 0, No Iterations 0
diagonal:  Solving for f9.air1, Initial residual = 0, Final residual = 0, No Iterations 0
diagonal:  Solving for f10.air1, Initial residual = 0, Final residual = 0, No Iterations 0
diagonal:  Solving for f11.air1, Initial residual = 0, Final residual = 0, No Iterations 0
diagonal:  Solving for f12.air1, Initial residual = 0, Final residual = 0, No Iterations 0
diagonal:  Solving for f13.air1, Initial residual = 0, Final residual = 0, No Iterations 0
diagonal:  Solving for f14.air1, Initial residual = 0, Final residual = 0, No Iterations 0
diagonal:  Solving for f15.air1, Initial residual = 0, Final residual = 0, No Iterations 0
diagonal:  Solving for f16.air1, Initial residual = 0, Final residual = 0, No Iterations 0
diagonal:  Solving for f17.air1, Initial residual = 0, Final residual = 0, No Iterations 0
diagonal:  Solving for f18.air1, Initial residual = 0, Final residual = 0, No Iterations 0
diagonal:  Solving for f19.air1, Initial residual = 0, Final residual = 0, No Iterations 0
diagonal:  Solving for f20.air2, Initial residual = 0, Final residual = 0, No Iterations 0
diagonal:  Solving for f21.air2, Initial residual = 0, Final residual = 0, No Iterations 0
diagonal:  Solving for f22.air2, Initial residual = 0, Final residual = 0, No Iterations 0
diagonal:  Solving for f23.air2, Initial residual = 0, Final residual = 0, No Iterations 0
diagonal:  Solving for f24.air2, Initial residual = 0, Final residual = 0, No Iterations 0
diagonal:  Solving for f25.air3, Initial residual = 0, Final residual = 0, No Iterations 0
diagonal:  Solving for f26.air3, Initial residual = 0, Final residual = 0, No Iterations 0
diagonal:  Solving for f27.air3, Initial residual = 0, Final residual = 0, No Iterations 0
diagonal:  Solving for f28.air3, Initial residual = 0, Final residual = 0, No Iterations 0
bubbles sizeGroup phase fraction first, last = 2.41206e-12 0.0318962
air1 sizeGroups-sum volume fraction, min, max = 1 1 1
air1 Sauter mean diameter, min, max = 0.325045 0.325045 0.325045
air2 sizeGroups-sum volume fraction, min, max = 1 1 1
air2 Sauter mean diameter, min, max = 0.648945 0.648945 0.648945
air3 sizeGroups-sum volume fraction, min, max = 1.00386 1.00386 1.00386
air3 Sauter mean diameter, min, max = 1.14087 1.14087 1.14087
Constructing momentum equations
diagonal:  Solving for p_rgh, Initial residual = 0, Final residual = 0, No Iterations 0
PIMPLE: Iteration 2
MULES: Solving for alpha.air1
MULES: Solving for alpha.air2
MULES: Solving for alpha.air3
MULES: Solving for alpha.water
air1 fraction, min, max = 3.55339e-05 3.55339e-05 3.55339e-05
air2 fraction, min, max = 0.00196867 0.00196867 0.00196867
air3 fraction, min, max = 0.0479973 0.0479973 0.0479973
water fraction, min, max = 0.949998 0.949998 0.949998
Phase-sum volume fraction, min, max = 1 1 1
populationBalance bubbles: Iteration 1
diagonal:  Solving for f0.air1, Initial residual = 0, Final residual = 0, No Iterations 0
diagonal:  Solving for f1.air1, Initial residual = 0, Final residual = 0, No Iterations 0
diagonal:  Solving for f2.air1, Initial residual = 0, Final residual = 0, No Iterations 0
diagonal:  Solving for f3.air1, Initial residual = 0, Final residual = 0, No Iterations 0
diagonal:  Solving for f4.air1, Initial residual = 0, Final residual = 0, No Iterations 0
diagonal:  Solving for f5.air1, Initial residual = 0, Final residual = 0, No Iterations 0
diagonal:  Solving for f6.air1, Initial residual = 0, Final residual = 0, No Iterations 0
diagonal:  Solving for f7.air1, Initial residual = 0, Final residual = 0, No Iterations 0
diagonal:  Solving for f8.air1, Initial residual = 0, Final residual = 0, No Iterations 0
diagonal:  Solving for f9.air1, Initial residual = 0, Final residual = 0, No Iterations 0
diagonal:  Solving for f10.air1, Initial residual = 0, Final residual = 0, No Iterations 0
diagonal:  Solving for f11.air1, Initial residual = 0, Final residual = 0, No Iterations 0
diagonal:  Solving for f12.air1, Initial residual = 0, Final residual = 0, No Iterations 0
diagonal:  Solving for f13.air1, Initial residual = 0, Final residual = 0, No Iterations 0
diagonal:  Solving for f14.air1, Initial residual = 0, Final residual = 0, No Iterations 0
diagonal:  Solving for f15.air1, Initial residual = 0, Final residual = 0, No Iterations 0
diagonal:  Solving for f16.air1, Initial residual = 0, Final residual = 0, No Iterations 0
diagonal:  Solving for f17.air1, Initial residual = 0, Final residual = 0, No Iterations 0
diagonal:  Solving for f18.air1, Initial residual = 0, Final residual = 0, No Iterations 0
diagonal:  Solving for f19.air1, Initial residual = 0, Final residual = 0, No Iterations 0
diagonal:  Solving for f20.air2, Initial residual = 0, Final residual = 0, No Iterations 0
diagonal:  Solving for f21.air2, Initial residual = 0, Final residual = 0, No Iterations 0
diagonal:  Solving for f22.air2, Initial residual = 0, Final residual = 0, No Iterations 0
diagonal:  Solving for f23.air2, Initial residual = 0, Final residual = 0, No Iterations 0
diagonal:  Solving for f24.air2, Initial residual = 0, Final residual = 0, No Iterations 0
diagonal:  Solving for f25.air3, Initial residual = 0, Final residual = 0, No Iterations 0
diagonal:  Solving for f26.air3, Initial residual = 0, Final residual = 0, No Iterations 0
diagonal:  Solving for f27.air3, Initial residual = 0, Final residual = 0, No Iterations 0
diagonal:  Solving for f28.air3, Initial residual = 0, Final residual = 0, No Iterations 0
bubbles sizeGroup phase fraction first, last = 2.41118e-12 0.0318406
air1 sizeGroups-sum volume fraction, min, max = 1 1 1
air1 Sauter mean diameter, min, max = 0.325045 0.325045 0.325045
air2 sizeGroups-sum volume fraction, min, max = 1 1 1
air2 Sauter mean diameter, min, max = 0.648947 0.648947 0.648947
air3 sizeGroups-sum volume fraction, min, max = 1.00141 1.00141 1.00141
air3 Sauter mean diameter, min, max = 1.14368 1.14368 1.14368
Constructing momentum equations
diagonal:  Solving for p_rgh, Initial residual = 0, Final residual = 0, No Iterations 0
ExecutionTime = 0.291371 s  ClockTime = 0 s

Courant Number mean: 0 max: 0
Time = 0.8s

PIMPLE: Iteration 1
MULES: Solving for alpha.air1
MULES: Solving for alpha.air2
MULES: Solving for alpha.air3
MULES: Solving for alpha.water
air1 fraction, min, max = 4.06242e-05 4.06242e-05 4.06242e-05
air2 fraction, min, max = 0.00224551 0.00224551 0.00224551
air3 fraction, min, max = 0.047717 0.047717 0.047717
water fraction, min, max = 0.949998 0.949998 0.949998
Phase-sum volume fraction, min, max = 1 1 1
populationBalance bubbles: Iteration 1
diagonal:  Solving for f0.air1, Initial residual = 0, Final residual = 0, No Iterations 0
diagonal:  Solving for f1.air1, Initial residual = 0, Final residual = 0, No Iterations 0
diagonal:  Solving for f2.air1, Initial residual = 0, Final residual = 0, No Iterations 0
diagonal:  Solving for f3.air1, Initial residual = 0, Final residual = 0, No Iterations 0
diagonal:  Solving for f4.air1, Initial residual = 0, Final residual = 0, No Iterations 0
diagonal:  Solving for f5.air1, Initial residual = 0, Final residual = 0, No Iterations 0
diagonal:  Solving for f6.air1, Initial residual = 0, Final residual = 0, No Iterations 0
diagonal:  Solving for f7.air1, Initial residual = 0, Final residual = 0, No Iterations 0
diagonal:  Solving for f8.air1, Initial residual = 0, Final residual = 0, No Iterations 0
diagonal:  Solving for f9.air1, Initial residual = 0, Final residual = 0, No Iterations 0
diagonal:  Solving for f10.air1, Initial residual = 0, Final residual = 0, No Iterations 0
diagonal:  Solving for f11.air1, Initial residual = 0, Final residual = 0, No Iterations 0
diagonal:  Solving for f12.air1, Initial residual = 0, Final residual = 0, No Iterations 0
diagonal:  Solving for f13.air1, Initial residual = 0, Final residual = 0, No Iterations 0
diagonal:  Solving for f14.air1, Initial residual = 0, Final residual = 0, No Iterations 0
diagonal:  Solving for f15.air1, Initial residual = 0, Final residual = 0, No Iterations 0
diagonal:  Solving for f16.air1, Initial residual = 0, Final residual = 0, No Iterations 0
diagonal:  Solving for f17.air1, Initial residual = 0, Final residual = 0, No Iterations 0
diagonal:  Solving for f18.air1, Initial residual = 0, Final residual = 0, No Iterations 0
diagonal:  Solving for f19.air1, Initial residual = 0, Final residual = 0, No Iterations 0
diagonal:  Solving for f20.air2, Initial residual = 0, Final residual = 0, No Iterations 0
diagonal:  Solving for f21.air2, Initial residual = 0, Final residual = 0, No Iterations 0
diagonal:  Solving for f22.air2, Initial residual = 0, Final residual = 0, No Iterations 0
diagonal:  Solving for f23.air2, Initial residual = 0, Final residual = 0, No Iterations 0
diagonal:  Solving for f24.air2, Initial residual = 0, Final residual = 0, No Iterations 0
diagonal:  Solving for f25.air3, Initial residual = 0, Final residual = 0, No Iterations 0
diagonal:  Solving for f26.air3, Initial residual = 0, Final residual = 0, No Iterations 0
diagonal:  Solving for f27.air3, Initial residual = 0, Final residual = 0, No Iterations 0
diagonal:  Solving for f28.air3, Initial residual = 0, Final residual = 0, No Iterations 0
bubbles sizeGroup phase fraction first, last = 2.75672e-12 0.0299048
air1 sizeGroups-sum volume fraction, min, max = 1 1 1
air1 Sauter mean diameter, min, max = 0.325044 0.325044 0.325044
air2 sizeGroups-sum volume fraction, min, max = 1 1 1
air2 Sauter mean diameter, min, max = 0.648815 0.648815 0.648815
air3 sizeGroups-sum volume fraction, min, max = 1.00391 1.00391 1.00391
air3 Sauter mean diameter, min, max = 1.13037 1.13037 1.13037
Constructing momentum equations
diagonal:  Solving for p_rgh, Initial residual = 0, Final residual = 0, No Iterations 0
PIMPLE: Iteration 2
MULES: Solving for alpha.air1
MULES: Solving for alpha.air2
MULES: Solving for alpha.air3
MULES: Solving for alpha.water
air1 fraction, min, max = 4.06118e-05 4.06118e-05 4.06118e-05
air2 fraction, min, max = 0.00224326 0.00224326 0.00224326
air3 fraction, min, max = 0.0477176 0.0477176 0.0477176
water fraction, min, max = 0.949998 0.949998 0.949998
Phase-sum volume fraction, min, max = 1 1 1
populationBalance bubbles: Iteration 1
diagonal:  Solving for f0.air1, Initial residual = 0, Final residual = 0, No Iterations 0
diagonal:  Solving for f1.air1, Initial residual = 0, Final residual = 0, No Iterations 0
diagonal:  Solving for f2.air1, Initial residual = 0, Final residual = 0, No Iterations 0
diagonal:  Solving for f3.air1, Initial residual = 0, Final residual = 0, No Iterations 0
diagonal:  Solving for f4.air1, Initial residual = 0, Final residual = 0, No Iterations 0
diagonal:  Solving for f5.air1, Initial residual = 0, Final residual = 0, No Iterations 0
diagonal:  Solving for f6.air1, Initial residual = 0, Final residual = 0, No Iterations 0
diagonal:  Solving for f7.air1, Initial residual = 0, Final residual = 0, No Iterations 0
diagonal:  Solving for f8.air1, Initial residual = 0, Final residual = 0, No Iterations 0
diagonal:  Solving for f9.air1, Initial residual = 0, Final residual = 0, No Iterations 0
diagonal:  Solving for f10.air1, Initial residual = 0, Final residual = 0, No Iterations 0
diagonal:  Solving for f11.air1, Initial residual = 0, Final residual = 0, No Iterations 0
diagonal:  Solving for f12.air1, Initial residual = 0, Final residual = 0, No Iterations 0
diagonal:  Solving for f13.air1, Initial residual = 0, Final residual = 0, No Iterations 0
diagonal:  Solving for f14.air1, Initial residual = 0, Final residual = 0, No Iterations 0
diagonal:  Solving for f15.air1, Initial residual = 0, Final residual = 0, No Iterations 0
diagonal:  Solving for f16.air1, Initial residual = 0, Final residual = 0, No Iterations 0
diagonal:  Solving for f17.air1, Initial residual = 0, Final residual = 0, No Iterations 0
diagonal:  Solving for f18.air1, Initial residual = 0, Final residual = 0, No Iterations 0
diagonal:  Solving for f19.air1, Initial residual = 0, Final residual = 0, No Iterations 0
diagonal:  Solving for f20.air2, Initial residual = 0, Final residual = 0, No Iterations 0
diagonal:  Solving for f21.air2, Initial residual = 0, Final residual = 0, No Iterations 0
diagonal:  Solving for f22.air2, Initial residual = 0, Final residual = 0, No Iterations 0
diagonal:  Solving for f23.air2, Initial residual = 0, Final residual = 0, No Iterations 0
diagonal:  Solving for f24.air2, Initial residual = 0, Final residual = 0, No Iterations 0
diagonal:  Solving for f25.air3, Initial residual = 0, Final residual = 0, No Iterations 0
diagonal:  Solving for f26.air3, Initial residual = 0, Final residual = 0, No Iterations 0
diagonal:  Solving for f27.air3, Initial residual = 0, Final residual = 0, No Iterations 0
diagonal:  Solving for f28.air3, Initial residual = 0, Final residual = 0, No Iterations 0
bubbles sizeGroup phase fraction first, last = 2.75589e-12 0.0298526
air1 sizeGroups-sum volume fraction, min, max = 1 1 1
air1 Sauter mean diameter, min, max = 0.325044 0.325044 0.325044
air2 sizeGroups-sum volume fraction, min, max = 1 1 1
air2 Sauter mean diameter, min, max = 0.648817 0.648817 0.648817
air3 sizeGroups-sum volume fraction, min, max = 1.00158 1.00158 1.00158
air3 Sauter mean diameter, min, max = 1.133 1.133 1.133
Constructing momentum equations
diagonal:  Solving for p_rgh, Initial residual = 0, Final residual = 0, No Iterations 0
ExecutionTime = 0.304289 s  ClockTime = 0 s

Courant Number mean: 0 max: 0
Time = 0.9s

PIMPLE: Iteration 1
MULES: Solving for alpha.air1
MULES: Solving for alpha.air2
MULES: Solving for alpha.air3
MULES: Solving for alpha.water
air1 fraction, min, max = 4.57017e-05 4.57017e-05 4.57017e-05
air2 fraction, min, max = 0.00251847 0.00251847 0.00251847
air3 fraction, min, max = 0.0474389 0.0474389 0.0474389
water fraction, min, max = 0.949998 0.949998 0.949998
Phase-sum volume fraction, min, max = 1 1 1
populationBalance bubbles: Iteration 1
diagonal:  Solving for f0.air1, Initial residual = 0, Final residual = 0, No Iterations 0
diagonal:  Solving for f1.air1, Initial residual = 0, Final residual = 0, No Iterations 0
diagonal:  Solving for f2.air1, Initial residual = 0, Final residual = 0, No Iterations 0
diagonal:  Solving for f3.air1, Initial residual = 0, Final residual = 0, No Iterations 0
diagonal:  Solving for f4.air1, Initial residual = 0, Final residual = 0, No Iterations 0
diagonal:  Solving for f5.air1, Initial residual = 0, Final residual = 0, No Iterations 0
diagonal:  Solving for f6.air1, Initial residual = 0, Final residual = 0, No Iterations 0
diagonal:  Solving for f7.air1, Initial residual = 0, Final residual = 0, No Iterations 0
diagonal:  Solving for f8.air1, Initial residual = 0, Final residual = 0, No Iterations 0
diagonal:  Solving for f9.air1, Initial residual = 0, Final residual = 0, No Iterations 0
diagonal:  Solving for f10.air1, Initial residual = 0, Final residual = 0, No Iterations 0
diagonal:  Solving for f11.air1, Initial residual = 0, Final residual = 0, No Iterations 0
diagonal:  Solving for f12.air1, Initial residual = 0, Final residual = 0, No Iterations 0
diagonal:  Solving for f13.air1, Initial residual = 0, Final residual = 0, No Iterations 0
diagonal:  Solving for f14.air1, Initial residual = 0, Final residual = 0, No Iterations 0
diagonal:  Solving for f15.air1, Initial residual = 0, Final residual = 0, No Iterations 0
diagonal:  Solving for f16.air1, Initial residual = 0, Final residual = 0, No Iterations 0
diagonal:  Solving for f17.air1, Initial residual = 0, Final residual = 0, No Iterations 0
diagonal:  Solving for f18.air1, Initial residual = 0, Final residual = 0, No Iterations 0
diagonal:  Solving for f19.air1, Initial residual = 0, Final residual = 0, No Iterations 0
diagonal:  Solving for f20.air2, Initial residual = 0, Final residual = 0, No Iterations 0
diagonal:  Solving for f21.air2, Initial residual = 0, Final residual = 0, No Iterations 0
diagonal:  Solving for f22.air2, Initial residual = 0, Final residual = 0, No Iterations 0
diagonal:  Solving for f23.air2, Initial residual = 0, Final residual = 0, No Iterations 0
diagonal:  Solving for f24.air2, Initial residual = 0, Final residual = 0, No Iterations 0
diagonal:  Solving for f25.air3, Initial residual = 0, Final residual = 0, No Iterations 0
diagonal:  Solving for f26.air3, Initial residual = 0, Final residual = 0, No Iterations 0
diagonal:  Solving for f27.air3, Initial residual = 0, Final residual = 0, No Iterations 0
diagonal:  Solving for f28.air3, Initial residual = 0, Final residual = 0, No Iterations 0
bubbles sizeGroup phase fraction first, last = 3.10143e-12 0.0280376
air1 sizeGroups-sum volume fraction, min, max = 1 1 1
air1 Sauter mean diameter, min, max = 0.325043 0.325043 0.325043
air2 sizeGroups-sum volume fraction, min, max = 1 1 1
air2 Sauter mean diameter, min, max = 0.648685 0.648685 0.648685
air3 sizeGroups-sum volume fraction, min, max = 1.00396 1.00396 1.00396
air3 Sauter mean diameter, min, max = 1.12047 1.12047 1.12047
Constructing momentum equations
diagonal:  Solving for p_rgh, Initial residual = 0, Final residual = 0, No Iterations 0
PIMPLE: Iteration 2
MULES: Solving for alpha.air1
MULES: Solving for alpha.air2
MULES: Solving for alpha.air3
MULES: Solving for alpha.water
air1 fraction, min, max = 4.569e-05 4.569e-05 4.569e-05
air2 fraction, min, max = 0.00251628 0.00251628 0.00251628
air3 fraction, min, max = 0.0474395 0.0474395 0.0474395
water fraction, min, max = 0.949998 0.949998 0.949998
Phase-sum volume fraction, min, max = 1 1 1
populationBalance bubbles: Iteration 1
diagonal:  Solving for f0.air1, Initial residual = 0, Final residual = 0, No Iterations 0
diagonal:  Solving for f1.air1, Initial residual = 0, Final residual = 0, No Iterations 0
diagonal:  Solving for f2.air1, Initial residual = 0, Final residual = 0, No Iterations 0
diagonal:  Solving for f3.air1, Initial residual = 0, Final residual = 0, No Iterations 0
diagonal:  Solving for f4.air1, Initial residual = 0, Final residual = 0, No Iterations 0
diagonal:  Solving for f5.air1, Initial residual = 0, Final residual = 0, No Iterations 0
diagonal:  Solving for f6.air1, Initial residual = 0, Final residual = 0, No Iterations 0
diagonal:  Solving for f7.air1, Initial residual = 0, Final residual = 0, No Iterations 0
diagonal:  Solving for f8.air1, Initial residual = 0, Final residual = 0, No Iterations 0
diagonal:  Solving for f9.air1, Initial residual = 0, Final residual = 0, No Iterations 0
diagonal:  Solving for f10.air1, Initial residual = 0, Final residual = 0, No Iterations 0
diagonal:  Solving for f11.air1, Initial residual = 0, Final residual = 0, No Iterations 0
diagonal:  Solving for f12.air1, Initial residual = 0, Final residual = 0, No Iterations 0
diagonal:  Solving for f13.air1, Initial residual = 0, Final residual = 0, No Iterations 0
diagonal:  Solving for f14.air1, Initial residual = 0, Final residual = 0, No Iterations 0
diagonal:  Solving for f15.air1, Initial residual = 0, Final residual = 0, No Iterations 0
diagonal:  Solving for f16.air1, Initial residual = 0, Final residual = 0, No Iterations 0
diagonal:  Solving for f17.air1, Initial residual = 0, Final residual = 0, No Iterations 0
diagonal:  Solving for f18.air1, Initial residual = 0, Final residual = 0, No Iterations 0
diagonal:  Solving for f19.air1, Initial residual = 0, Final residual = 0, No Iterations 0
diagonal:  Solving for f20.air2, Initial residual = 0, Final residual = 0, No Iterations 0
diagonal:  Solving for f21.air2, Initial residual = 0, Final residual = 0, No Iterations 0
diagonal:  Solving for f22.air2, Initial residual = 0, Final residual = 0, No Iterations 0
diagonal:  Solving for f23.air2, Initial residual = 0, Final residual = 0, No Iterations 0
diagonal:  Solving for f24.air2, Initial residual = 0, Final residual = 0, No Iterations 0
diagonal:  Solving for f25.air3, Initial residual = 0, Final residual = 0, No Iterations 0
diagonal:  Solving for f26.air3, Initial residual = 0, Final residual = 0, No Iterations 0
diagonal:  Solving for f27.air3, Initial residual = 0, Final residual = 0, No Iterations 0
diagonal:  Solving for f28.air3, Initial residual = 0, Final residual = 0, No Iterations 0
bubbles sizeGroup phase fraction first, last = 3.10065e-12 0.0279887
air1 sizeGroups-sum volume fraction, min, max = 1 1 1
air1 Sauter mean diameter, min, max = 0.325043 0.325043 0.325043
air2 sizeGroups-sum volume fraction, min, max = 1 1 1
air2 Sauter mean diameter, min, max = 0.648686 0.648686 0.648686
air3 sizeGroups-sum volume fraction, min, max = 1.00174 1.00174 1.00174
air3 Sauter mean diameter, min, max = 1.12293 1.12293 1.12293
Constructing momentum equations
diagonal:  Solving for p_rgh, Initial residual = 0, Final residual = 0, No Iterations 0
ExecutionTime = 0.318543 s  ClockTime = 0 s

Courant Number mean: 0 max: 0
Time = 1s

PIMPLE: Iteration 1
MULES: Solving for alpha.air1
MULES: Solving for alpha.air2
MULES: Solving for alpha.air3
MULES: Solving for alpha.water
air1 fraction, min, max = 5.07794e-05 5.07794e-05 5.07794e-05
air2 fraction, min, max = 0.00278987 0.00278987 0.00278987
air3 fraction, min, max = 0.0471624 0.0471624 0.0471624
water fraction, min, max = 0.949998 0.949998 0.949998
Phase-sum volume fraction, min, max = 1 1 1
populationBalance bubbles: Iteration 1
diagonal:  Solving for f0.air1, Initial residual = 0, Final residual = 0, No Iterations 0
diagonal:  Solving for f1.air1, Initial residual = 0, Final residual = 0, No Iterations 0
diagonal:  Solving for f2.air1, Initial residual = 0, Final residual = 0, No Iterations 0
diagonal:  Solving for f3.air1, Initial residual = 0, Final residual = 0, No Iterations 0
diagonal:  Solving for f4.air1, Initial residual = 0, Final residual = 0, No Iterations 0
diagonal:  Solving for f5.air1, Initial residual = 0, Final residual = 0, No Iterations 0
diagonal:  Solving for f6.air1, Initial residual = 0, Final residual = 0, No Iterations 0
diagonal:  Solving for f7.air1, Initial residual = 0, Final residual = 0, No Iterations 0
diagonal:  Solving for f8.air1, Initial residual = 0, Final residual = 0, No Iterations 0
diagonal:  Solving for f9.air1, Initial residual = 0, Final residual = 0, No Iterations 0
diagonal:  Solving for f10.air1, Initial residual = 0, Final residual = 0, No Iterations 0
diagonal:  Solving for f11.air1, Initial residual = 0, Final residual = 0, No Iterations 0
diagonal:  Solving for f12.air1, Initial residual = 0, Final residual = 0, No Iterations 0
diagonal:  Solving for f13.air1, Initial residual = 0, Final residual = 0, No Iterations 0
diagonal:  Solving for f14.air1, Initial residual = 0, Final residual = 0, No Iterations 0
diagonal:  Solving for f15.air1, Initial residual = 0, Final residual = 0, No Iterations 0
diagonal:  Solving for f16.air1, Initial residual = 0, Final residual = 0, No Iterations 0
diagonal:  Solving for f17.air1, Initial residual = 0, Final residual = 0, No Iterations 0
diagonal:  Solving for f18.air1, Initial residual = 0, Final residual = 0, No Iterations 0
diagonal:  Solving for f19.air1, Initial residual = 0, Final residual = 0, No Iterations 0
diagonal:  Solving for f20.air2, Initial residual = 0, Final residual = 0, No Iterations 0
diagonal:  Solving for f21.air2, Initial residual = 0, Final residual = 0, No Iterations 0
diagonal:  Solving for f22.air2, Initial residual = 0, Final residual = 0, No Iterations 0
diagonal:  Solving for f23.air2, Initial residual = 0, Final residual = 0, No Iterations 0
diagonal:  Solving for f24.air2, Initial residual = 0, Final residual = 0, No Iterations 0
diagonal:  Solving for f25.air3, Initial residual = 0, Final residual = 0, No Iterations 0
diagonal:  Solving for f26.air3, Initial residual = 0, Final residual = 0, No Iterations 0
diagonal:  Solving for f27.air3, Initial residual = 0, Final residual = 0, No Iterations 0
diagonal:  Solving for f28.air3, Initial residual = 0, Final residual = 0, No Iterations 0
bubbles sizeGroup phase fraction first, last = 3.4462e-12 0.0262871
air1 sizeGroups-sum volume fraction, min, max = 1 1 1
air1 Sauter mean diameter, min, max = 0.325041 0.325041 0.325041
air2 sizeGroups-sum volume fraction, min, max = 1 1 1
air2 Sauter mean diameter, min, max = 0.648554 0.648554 0.648554
air3 sizeGroups-sum volume fraction, min, max = 1.004 1.004 1.004
air3 Sauter mean diameter, min, max = 1.11111 1.11111 1.11111
Constructing momentum equations
diagonal:  Solving for p_rgh, Initial residual = 0, Final residual = 0, No Iterations 0
PIMPLE: Iteration 2
MULES: Solving for alpha.air1
MULES: Solving for alpha.air2
MULES: Solving for alpha.air3
MULES: Solving for alpha.water
air1 fraction, min, max = 5.07684e-05 5.07684e-05 5.07684e-05
air2 fraction, min, max = 0.00278771 0.00278771 0.00278771
air3 fraction, min, max = 0.047163 0.047163 0.047163
water fraction, min, max = 0.949998 0.949998 0.949998
Phase-sum volume fraction, min, max = 1 1 1
populationBalance bubbles: Iteration 1
diagonal:  Solving for f0.air1, Initial residual = 0, Final residual = 0, No Iterations 0
diagonal:  Solving for f1.air1, Initial residual = 0, Final residual = 0, No Iterations 0
diagonal:  Solving for f2.air1, Initial residual = 0, Final residual = 0, No Iterations 0
diagonal:  Solving for f3.air1, Initial residual = 0, Final residual = 0, No Iterations 0
diagonal:  Solving for f4.air1, Initial residual = 0, Final residual = 0, No Iterations 0
diagonal:  Solving for f5.air1, Initial residual = 0, Final residual = 0, No Iterations 0
diagonal:  Solving for f6.air1, Initial residual = 0, Final residual = 0, No Iterations 0
diagonal:  Solving for f7.air1, Initial residual = 0, Final residual = 0, No Iterations 0
diagonal:  Solving for f8.air1, Initial residual = 0, Final residual = 0, No Iterations 0
diagonal:  Solving for f9.air1, Initial residual = 0, Final residual = 0, No Iterations 0
diagonal:  Solving for f10.air1, Initial residual = 0, Final residual = 0, No Iterations 0
diagonal:  Solving for f11.air1, Initial residual = 0, Final residual = 0, No Iterations 0
diagonal:  Solving for f12.air1, Initial residual = 0, Final residual = 0, No Iterations 0
diagonal:  Solving for f13.air1, Initial residual = 0, Final residual = 0, No Iterations 0
diagonal:  Solving for f14.air1, Initial residual = 0, Final residual = 0, No Iterations 0
diagonal:  Solving for f15.air1, Initial residual = 0, Final residual = 0, No Iterations 0
diagonal:  Solving for f16.air1, Initial residual = 0, Final residual = 0, No Iterations 0
diagonal:  Solving for f17.air1, Initial residual = 0, Final residual = 0, No Iterations 0
diagonal:  Solving for f18.air1, Initial residual = 0, Final residual = 0, No Iterations 0
diagonal:  Solving for f19.air1, Initial residual = 0, Final residual = 0, No Iterations 0
diagonal:  Solving for f20.air2, Initial residual = 0, Final residual = 0, No Iterations 0
diagonal:  Solving for f21.air2, Initial residual = 0, Final residual = 0, No Iterations 0
diagonal:  Solving for f22.air2, Initial residual = 0, Final residual = 0, No Iterations 0
diagonal:  Solving for f23.air2, Initial residual = 0, Final residual = 0, No Iterations 0
diagonal:  Solving for f24.air2, Initial residual = 0, Final residual = 0, No Iterations 0
diagonal:  Solving for f25.air3, Initial residual = 0, Final residual = 0, No Iterations 0
diagonal:  Solving for f26.air3, Initial residual = 0, Final residual = 0, No Iterations 0
diagonal:  Solving for f27.air3, Initial residual = 0, Final residual = 0, No Iterations 0
diagonal:  Solving for f28.air3, Initial residual = 0, Final residual = 0, No Iterations 0
bubbles sizeGroup phase fraction first, last = 3.44545e-12 0.0262412
air1 sizeGroups-sum volume fraction, min, max = 1 1 1
air1 Sauter mean diameter, min, max = 0.325041 0.325041 0.325041
air2 sizeGroups-sum volume fraction, min, max = 1 1 1
air2 Sauter mean diameter, min, max = 0.648556 0.648556 0.648556
air3 sizeGroups-sum volume fraction, min, max = 1.00189 1.00189 1.00189
air3 Sauter mean diameter, min, max = 1.11342 1.11342 1.11342
Constructing momentum equations
diagonal:  Solving for p_rgh, Initial residual = 0, Final residual = 0, No Iterations 0
ExecutionTime = 0.344897 s  ClockTime = 0 s

Courant Number mean: 0 max: 0
Time = 1.1s

PIMPLE: Iteration 1
MULES: Solving for alpha.air1
MULES: Solving for alpha.air2
MULES: Solving for alpha.air3
MULES: Solving for alpha.water
air1 fraction, min, max = 5.58574e-05 5.58574e-05 5.58574e-05
air2 fraction, min, max = 0.00305969 0.00305969 0.00305969
air3 fraction, min, max = 0.0468875 0.0468875 0.0468875
water fraction, min, max = 0.949998 0.949998 0.949998
Phase-sum volume fraction, min, max = 1 1 1
populationBalance bubbles: Iteration 1
diagonal:  Solving for f0.air1, Initial residual = 0, Final residual = 0, No Iterations 0
diagonal:  Solving for f1.air1, Initial residual = 0, Final residual = 0, No Iterations 0
diagonal:  Solving for f2.air1, Initial residual = 0, Final residual = 0, No Iterations 0
diagonal:  Solving for f3.air1, Initial residual = 0, Final residual = 0, No Iterations 0
diagonal:  Solving for f4.air1, Initial residual = 0, Final residual = 0, No Iterations 0
diagonal:  Solving for f5.air1, Initial residual = 0, Final residual = 0, No Iterations 0
diagonal:  Solving for f6.air1, Initial residual = 0, Final residual = 0, No Iterations 0
diagonal:  Solving for f7.air1, Initial residual = 0, Final residual = 0, No Iterations 0
diagonal:  Solving for f8.air1, Initial residual = 0, Final residual = 0, No Iterations 0
diagonal:  Solving for f9.air1, Initial residual = 0, Final residual = 0, No Iterations 0
diagonal:  Solving for f10.air1, Initial residual = 0, Final residual = 0, No Iterations 0
diagonal:  Solving for f11.air1, Initial residual = 0, Final residual = 0, No Iterations 0
diagonal:  Solving for f12.air1, Initial residual = 0, Final residual = 0, No Iterations 0
diagonal:  Solving for f13.air1, Initial residual = 0, Final residual = 0, No Iterations 0
diagonal:  Solving for f14.air1, Initial residual = 0, Final residual = 0, No Iterations 0
diagonal:  Solving for f15.air1, Initial residual = 0, Final residual = 0, No Iterations 0
diagonal:  Solving for f16.air1, Initial residual = 0, Final residual = 0, No Iterations 0
diagonal:  Solving for f17.air1, Initial residual = 0, Final residual = 0, No Iterations 0
diagonal:  Solving for f18.air1, Initial residual = 0, Final residual = 0, No Iterations 0
diagonal:  Solving for f19.air1, Initial residual = 0, Final residual = 0, No Iterations 0
diagonal:  Solving for f20.air2, Initial residual = 0, Final residual = 0, No Iterations 0
diagonal:  Solving for f21.air2, Initial residual = 0, Final residual = 0, No Iterations 0
diagonal:  Solving for f22.air2, Initial residual = 0, Final residual = 0, No Iterations 0
diagonal:  Solving for f23.air2, Initial residual = 0, Final residual = 0, No Iterations 0
diagonal:  Solving for f24.air2, Initial residual = 0, Final residual = 0, No Iterations 0
[...]
diagonal:  Solving for f19.air1, Initial residual = 0, Final residual = 0, No Iterations 0
diagonal:  Solving for f20.air2, Initial residual = 0, Final residual = 0, No Iterations 0
diagonal:  Solving for f21.air2, Initial residual = 0, Final residual = 0, No Iterations 0
diagonal:  Solving for f22.air2, Initial residual = 0, Final residual = 0, No Iterations 0
diagonal:  Solving for f23.air2, Initial residual = 0, Final residual = 0, No Iterations 0
diagonal:  Solving for f24.air2, Initial residual = 0, Final residual = 0, No Iterations 0
diagonal:  Solving for f25.air3, Initial residual = 0, Final residual = 0, No Iterations 0
diagonal:  Solving for f26.air3, Initial residual = 0, Final residual = 0, No Iterations 0
diagonal:  Solving for f27.air3, Initial residual = 0, Final residual = 0, No Iterations 0
diagonal:  Solving for f28.air3, Initial residual = 0, Final residual = 0, No Iterations 0
bubbles sizeGroup phase fraction first, last = 3.38477e-11 9.02525e-05
air1 sizeGroups-sum volume fraction, min, max = 1 1 1
air1 Sauter mean diameter, min, max = 0.324921 0.324921 0.324921
air2 sizeGroups-sum volume fraction, min, max = 1 1 1
air2 Sauter mean diameter, min, max = 0.636874 0.636874 0.636874
air3 sizeGroups-sum volume fraction, min, max = 1.00735 1.00735 1.00735
air3 Sauter mean diameter, min, max = 0.886376 0.886376 0.886376
Constructing momentum equations
diagonal:  Solving for p_rgh, Initial residual = 0, Final residual = 0, No Iterations 0
PIMPLE: Iteration 2
MULES: Solving for alpha.air1
MULES: Solving for alpha.air2
MULES: Solving for alpha.air3
MULES: Solving for alpha.water
air1 fraction, min, max = 0.000496521 0.000496521 0.000496521
air2 fraction, min, max = 0.0213575 0.0213575 0.0213575
air3 fraction, min, max = 0.0281474 0.0281474 0.0281474
water fraction, min, max = 0.949999 0.949999 0.949999
Phase-sum volume fraction, min, max = 1 1 1
populationBalance bubbles: Iteration 1
diagonal:  Solving for f0.air1, Initial residual = 0, Final residual = 0, No Iterations 0
diagonal:  Solving for f1.air1, Initial residual = 0, Final residual = 0, No Iterations 0
diagonal:  Solving for f2.air1, Initial residual = 0, Final residual = 0, No Iterations 0
diagonal:  Solving for f3.air1, Initial residual = 0, Final residual = 0, No Iterations 0
diagonal:  Solving for f4.air1, Initial residual = 0, Final residual = 0, No Iterations 0
diagonal:  Solving for f5.air1, Initial residual = 0, Final residual = 0, No Iterations 0
diagonal:  Solving for f6.air1, Initial residual = 0, Final residual = 0, No Iterations 0
diagonal:  Solving for f7.air1, Initial residual = 0, Final residual = 0, No Iterations 0
diagonal:  Solving for f8.air1, Initial residual = 0, Final residual = 0, No Iterations 0
diagonal:  Solving for f9.air1, Initial residual = 0, Final residual = 0, No Iterations 0
diagonal:  Solving for f10.air1, Initial residual = 0, Final residual = 0, No Iterations 0
diagonal:  Solving for f11.air1, Initial residual = 0, Final residual = 0, No Iterations 0
diagonal:  Solving for f12.air1, Initial residual = 0, Final residual = 0, No Iterations 0
diagonal:  Solving for f13.air1, Initial residual = 0, Final residual = 0, No Iterations 0
diagonal:  Solving for f14.air1, Initial residual = 0, Final residual = 0, No Iterations 0
diagonal:  Solving for f15.air1, Initial residual = 0, Final residual = 0, No Iterations 0
diagonal:  Solving for f16.air1, Initial residual = 0, Final residual = 0, No Iterations 0
diagonal:  Solving for f17.air1, Initial residual = 0, Final residual = 0, No Iterations 0
diagonal:  Solving for f18.air1, Initial residual = 0, Final residual = 0, No Iterations 0
diagonal:  Solving for f19.air1, Initial residual = 0, Final residual = 0, No Iterations 0
diagonal:  Solving for f20.air2, Initial residual = 0, Final residual = 0, No Iterations 0
diagonal:  Solving for f21.air2, Initial residual = 0, Final residual = 0, No Iterations 0
diagonal:  Solving for f22.air2, Initial residual = 0, Final residual = 0, No Iterations 0
diagonal:  Solving for f23.air2, Initial residual = 0, Final residual = 0, No Iterations 0
diagonal:  Solving for f24.air2, Initial residual = 0, Final residual = 0, No Iterations 0
diagonal:  Solving for f25.air3, Initial residual = 0, Final residual = 0, No Iterations 0
diagonal:  Solving for f26.air3, Initial residual = 0, Final residual = 0, No Iterations 0
diagonal:  Solving for f27.air3, Initial residual = 0, Final residual = 0, No Iterations 0
diagonal:  Solving for f28.air3, Initial residual = 0, Final residual = 0, No Iterations 0
bubbles sizeGroup phase fraction first, last = 3.38477e-11 9.00928e-05
air1 sizeGroups-sum volume fraction, min, max = 1 1 1
air1 Sauter mean diameter, min, max = 0.324921 0.324921 0.324921
air2 sizeGroups-sum volume fraction, min, max = 1 1 1
air2 Sauter mean diameter, min, max = 0.636875 0.636875 0.636875
air3 sizeGroups-sum volume fraction, min, max = 1.00725 1.00725 1.00725
air3 Sauter mean diameter, min, max = 0.886458 0.886458 0.886458
Constructing momentum equations
diagonal:  Solving for p_rgh, Initial residual = 0, Final residual = 0, No Iterations 0
ExecutionTime = 1.84682 s  ClockTime = 1 s

Courant Number mean: 0 max: 0
Time = 9.9s

PIMPLE: Iteration 1
MULES: Solving for alpha.air1
MULES: Solving for alpha.air2
MULES: Solving for alpha.air3
MULES: Solving for alpha.water
air1 fraction, min, max = 0.000501567 0.000501567 0.000501567
air2 fraction, min, max = 0.0215184 0.0215184 0.0215184
air3 fraction, min, max = 0.0279824 0.0279824 0.0279824
water fraction, min, max = 0.949999 0.949999 0.949999
Phase-sum volume fraction, min, max = 1 1 1
populationBalance bubbles: Iteration 1
diagonal:  Solving for f0.air1, Initial residual = 0, Final residual = 0, No Iterations 0
diagonal:  Solving for f1.air1, Initial residual = 0, Final residual = 0, No Iterations 0
diagonal:  Solving for f2.air1, Initial residual = 0, Final residual = 0, No Iterations 0
diagonal:  Solving for f3.air1, Initial residual = 0, Final residual = 0, No Iterations 0
diagonal:  Solving for f4.air1, Initial residual = 0, Final residual = 0, No Iterations 0
diagonal:  Solving for f5.air1, Initial residual = 0, Final residual = 0, No Iterations 0
diagonal:  Solving for f6.air1, Initial residual = 0, Final residual = 0, No Iterations 0
diagonal:  Solving for f7.air1, Initial residual = 0, Final residual = 0, No Iterations 0
diagonal:  Solving for f8.air1, Initial residual = 0, Final residual = 0, No Iterations 0
diagonal:  Solving for f9.air1, Initial residual = 0, Final residual = 0, No Iterations 0
diagonal:  Solving for f10.air1, Initial residual = 0, Final residual = 0, No Iterations 0
diagonal:  Solving for f11.air1, Initial residual = 0, Final residual = 0, No Iterations 0
diagonal:  Solving for f12.air1, Initial residual = 0, Final residual = 0, No Iterations 0
diagonal:  Solving for f13.air1, Initial residual = 0, Final residual = 0, No Iterations 0
diagonal:  Solving for f14.air1, Initial residual = 0, Final residual = 0, No Iterations 0
diagonal:  Solving for f15.air1, Initial residual = 0, Final residual = 0, No Iterations 0
diagonal:  Solving for f16.air1, Initial residual = 0, Final residual = 0, No Iterations 0
diagonal:  Solving for f17.air1, Initial residual = 0, Final residual = 0, No Iterations 0
diagonal:  Solving for f18.air1, Initial residual = 0, Final residual = 0, No Iterations 0
diagonal:  Solving for f19.air1, Initial residual = 0, Final residual = 0, No Iterations 0
diagonal:  Solving for f20.air2, Initial residual = 0, Final residual = 0, No Iterations 0
diagonal:  Solving for f21.air2, Initial residual = 0, Final residual = 0, No Iterations 0
diagonal:  Solving for f22.air2, Initial residual = 0, Final residual = 0, No Iterations 0
diagonal:  Solving for f23.air2, Initial residual = 0, Final residual = 0, No Iterations 0
diagonal:  Solving for f24.air2, Initial residual = 0, Final residual = 0, No Iterations 0
diagonal:  Solving for f25.air3, Initial residual = 0, Final residual = 0, No Iterations 0
diagonal:  Solving for f26.air3, Initial residual = 0, Final residual = 0, No Iterations 0
diagonal:  Solving for f27.air3, Initial residual = 0, Final residual = 0, No Iterations 0
diagonal:  Solving for f28.air3, Initial residual = 0, Final residual = 0, No Iterations 0
bubbles sizeGroup phase fraction first, last = 3.41933e-11 8.46165e-05
air1 sizeGroups-sum volume fraction, min, max = 1 1 1
air1 Sauter mean diameter, min, max = 0.324919 0.324919 0.324919
air2 sizeGroups-sum volume fraction, min, max = 1 1 1
air2 Sauter mean diameter, min, max = 0.63674 0.63674 0.63674
air3 sizeGroups-sum volume fraction, min, max = 1.00739 1.00739 1.00739
air3 Sauter mean diameter, min, max = 0.885645 0.885645 0.885645
Constructing momentum equations
diagonal:  Solving for p_rgh, Initial residual = 0, Final residual = 0, No Iterations 0
PIMPLE: Iteration 2
MULES: Solving for alpha.air1
MULES: Solving for alpha.air2
MULES: Solving for alpha.air3
MULES: Solving for alpha.water
air1 fraction, min, max = 0.000501566 0.000501566 0.000501566
air2 fraction, min, max = 0.0215174 0.0215174 0.0215174
air3 fraction, min, max = 0.0279824 0.0279824 0.0279824
water fraction, min, max = 0.949999 0.949999 0.949999
Phase-sum volume fraction, min, max = 1 1 1
populationBalance bubbles: Iteration 1
diagonal:  Solving for f0.air1, Initial residual = 0, Final residual = 0, No Iterations 0
diagonal:  Solving for f1.air1, Initial residual = 0, Final residual = 0, No Iterations 0
diagonal:  Solving for f2.air1, Initial residual = 0, Final residual = 0, No Iterations 0
diagonal:  Solving for f3.air1, Initial residual = 0, Final residual = 0, No Iterations 0
diagonal:  Solving for f4.air1, Initial residual = 0, Final residual = 0, No Iterations 0
diagonal:  Solving for f5.air1, Initial residual = 0, Final residual = 0, No Iterations 0
diagonal:  Solving for f6.air1, Initial residual = 0, Final residual = 0, No Iterations 0
diagonal:  Solving for f7.air1, Initial residual = 0, Final residual = 0, No Iterations 0
diagonal:  Solving for f8.air1, Initial residual = 0, Final residual = 0, No Iterations 0
diagonal:  Solving for f9.air1, Initial residual = 0, Final residual = 0, No Iterations 0
diagonal:  Solving for f10.air1, Initial residual = 0, Final residual = 0, No Iterations 0
diagonal:  Solving for f11.air1, Initial residual = 0, Final residual = 0, No Iterations 0
diagonal:  Solving for f12.air1, Initial residual = 0, Final residual = 0, No Iterations 0
diagonal:  Solving for f13.air1, Initial residual = 0, Final residual = 0, No Iterations 0
diagonal:  Solving for f14.air1, Initial residual = 0, Final residual = 0, No Iterations 0
diagonal:  Solving for f15.air1, Initial residual = 0, Final residual = 0, No Iterations 0
diagonal:  Solving for f16.air1, Initial residual = 0, Final residual = 0, No Iterations 0
diagonal:  Solving for f17.air1, Initial residual = 0, Final residual = 0, No Iterations 0
diagonal:  Solving for f18.air1, Initial residual = 0, Final residual = 0, No Iterations 0
diagonal:  Solving for f19.air1, Initial residual = 0, Final residual = 0, No Iterations 0
diagonal:  Solving for f20.air2, Initial residual = 0, Final residual = 0, No Iterations 0
diagonal:  Solving for f21.air2, Initial residual = 0, Final residual = 0, No Iterations 0
diagonal:  Solving for f22.air2, Initial residual = 0, Final residual = 0, No Iterations 0
diagonal:  Solving for f23.air2, Initial residual = 0, Final residual = 0, No Iterations 0
diagonal:  Solving for f24.air2, Initial residual = 0, Final residual = 0, No Iterations 0
diagonal:  Solving for f25.air3, Initial residual = 0, Final residual = 0, No Iterations 0
diagonal:  Solving for f26.air3, Initial residual = 0, Final residual = 0, No Iterations 0
diagonal:  Solving for f27.air3, Initial residual = 0, Final residual = 0, No Iterations 0
diagonal:  Solving for f28.air3, Initial residual = 0, Final residual = 0, No Iterations 0
bubbles sizeGroup phase fraction first, last = 3.41933e-11 8.44668e-05
air1 sizeGroups-sum volume fraction, min, max = 1 1 1
air1 Sauter mean diameter, min, max = 0.324919 0.324919 0.324919
air2 sizeGroups-sum volume fraction, min, max = 1 1 1
air2 Sauter mean diameter, min, max = 0.636741 0.636741 0.636741
air3 sizeGroups-sum volume fraction, min, max = 1.00729 1.00729 1.00729
air3 Sauter mean diameter, min, max = 0.885725 0.885725 0.885725
Constructing momentum equations
diagonal:  Solving for p_rgh, Initial residual = 0, Final residual = 0, No Iterations 0
ExecutionTime = 1.86503 s  ClockTime = 1 s

Courant Number mean: 0 max: 0
Time = 10s

PIMPLE: Iteration 1
MULES: Solving for alpha.air1
MULES: Solving for alpha.air2
MULES: Solving for alpha.air3
MULES: Solving for alpha.water
air1 fraction, min, max = 0.000506612 0.000506612 0.000506612
air2 fraction, min, max = 0.0216774 0.0216774 0.0216774
air3 fraction, min, max = 0.0278184 0.0278184 0.0278184
water fraction, min, max = 0.949999 0.949999 0.949999
Phase-sum volume fraction, min, max = 1 1 1
populationBalance bubbles: Iteration 1
diagonal:  Solving for f0.air1, Initial residual = 0, Final residual = 0, No Iterations 0
diagonal:  Solving for f1.air1, Initial residual = 0, Final residual = 0, No Iterations 0
diagonal:  Solving for f2.air1, Initial residual = 0, Final residual = 0, No Iterations 0
diagonal:  Solving for f3.air1, Initial residual = 0, Final residual = 0, No Iterations 0
diagonal:  Solving for f4.air1, Initial residual = 0, Final residual = 0, No Iterations 0
diagonal:  Solving for f5.air1, Initial residual = 0, Final residual = 0, No Iterations 0
diagonal:  Solving for f6.air1, Initial residual = 0, Final residual = 0, No Iterations 0
diagonal:  Solving for f7.air1, Initial residual = 0, Final residual = 0, No Iterations 0
diagonal:  Solving for f8.air1, Initial residual = 0, Final residual = 0, No Iterations 0
diagonal:  Solving for f9.air1, Initial residual = 0, Final residual = 0, No Iterations 0
diagonal:  Solving for f10.air1, Initial residual = 0, Final residual = 0, No Iterations 0
diagonal:  Solving for f11.air1, Initial residual = 0, Final residual = 0, No Iterations 0
diagonal:  Solving for f12.air1, Initial residual = 0, Final residual = 0, No Iterations 0
diagonal:  Solving for f13.air1, Initial residual = 0, Final residual = 0, No Iterations 0
diagonal:  Solving for f14.air1, Initial residual = 0, Final residual = 0, No Iterations 0
diagonal:  Solving for f15.air1, Initial residual = 0, Final residual = 0, No Iterations 0
diagonal:  Solving for f16.air1, Initial residual = 0, Final residual = 0, No Iterations 0
diagonal:  Solving for f17.air1, Initial residual = 0, Final residual = 0, No Iterations 0
diagonal:  Solving for f18.air1, Initial residual = 0, Final residual = 0, No Iterations 0
diagonal:  Solving for f19.air1, Initial residual = 0, Final residual = 0, No Iterations 0
diagonal:  Solving for f20.air2, Initial residual = 0, Final residual = 0, No Iterations 0
diagonal:  Solving for f21.air2, Initial residual = 0, Final residual = 0, No Iterations 0
diagonal:  Solving for f22.air2, Initial residual = 0, Final residual = 0, No Iterations 0
diagonal:  Solving for f23.air2, Initial residual = 0, Final residual = 0, No Iterations 0
diagonal:  Solving for f24.air2, Initial residual = 0, Final residual = 0, No Iterations 0
diagonal:  Solving for f25.air3, Initial residual = 0, Final residual = 0, No Iterations 0
diagonal:  Solving for f26.air3, Initial residual = 0, Final residual = 0, No Iterations 0
diagonal:  Solving for f27.air3, Initial residual = 0, Final residual = 0, No Iterations 0
diagonal:  Solving for f28.air3, Initial residual = 0, Final residual = 0, No Iterations 0
bubbles sizeGroup phase fraction first, last = 3.4539e-11 7.93324e-05
air1 sizeGroups-sum volume fraction, min, max = 1 1 1
air1 Sauter mean diameter, min, max = 0.324918 0.324918 0.324918
air2 sizeGroups-sum volume fraction, min, max = 1 1 1
air2 Sauter mean diameter, min, max = 0.636606 0.636606 0.636606
air3 sizeGroups-sum volume fraction, min, max = 1.00744 1.00744 1.00744
air3 Sauter mean diameter, min, max = 0.884924 0.884924 0.884924
Constructing momentum equations
diagonal:  Solving for p_rgh, Initial residual = 0, Final residual = 0, No Iterations 0
PIMPLE: Iteration 2
MULES: Solving for alpha.air1
MULES: Solving for alpha.air2
MULES: Solving for alpha.air3
MULES: Solving for alpha.water
air1 fraction, min, max = 0.000506611 0.000506611 0.000506611
air2 fraction, min, max = 0.0216764 0.0216764 0.0216764
air3 fraction, min, max = 0.0278184 0.0278184 0.0278184
water fraction, min, max = 0.949999 0.949999 0.949999
Phase-sum volume fraction, min, max = 1 1 1
populationBalance bubbles: Iteration 1
diagonal:  Solving for f0.air1, Initial residual = 0, Final residual = 0, No Iterations 0
diagonal:  Solving for f1.air1, Initial residual = 0, Final residual = 0, No Iterations 0
diagonal:  Solving for f2.air1, Initial residual = 0, Final residual = 0, No Iterations 0
diagonal:  Solving for f3.air1, Initial residual = 0, Final residual = 0, No Iterations 0
diagonal:  Solving for f4.air1, Initial residual = 0, Final residual = 0, No Iterations 0
diagonal:  Solving for f5.air1, Initial residual = 0, Final residual = 0, No Iterations 0
diagonal:  Solving for f6.air1, Initial residual = 0, Final residual = 0, No Iterations 0
diagonal:  Solving for f7.air1, Initial residual = 0, Final residual = 0, No Iterations 0
diagonal:  Solving for f8.air1, Initial residual = 0, Final residual = 0, No Iterations 0
diagonal:  Solving for f9.air1, Initial residual = 0, Final residual = 0, No Iterations 0
diagonal:  Solving for f10.air1, Initial residual = 0, Final residual = 0, No Iterations 0
diagonal:  Solving for f11.air1, Initial residual = 0, Final residual = 0, No Iterations 0
diagonal:  Solving for f12.air1, Initial residual = 0, Final residual = 0, No Iterations 0
diagonal:  Solving for f13.air1, Initial residual = 0, Final residual = 0, No Iterations 0
diagonal:  Solving for f14.air1, Initial residual = 0, Final residual = 0, No Iterations 0
diagonal:  Solving for f15.air1, Initial residual = 0, Final residual = 0, No Iterations 0
diagonal:  Solving for f16.air1, Initial residual = 0, Final residual = 0, No Iterations 0
diagonal:  Solving for f17.air1, Initial residual = 0, Final residual = 0, No Iterations 0
diagonal:  Solving for f18.air1, Initial residual = 0, Final residual = 0, No Iterations 0
diagonal:  Solving for f19.air1, Initial residual = 0, Final residual = 0, No Iterations 0
diagonal:  Solving for f20.air2, Initial residual = 0, Final residual = 0, No Iterations 0
diagonal:  Solving for f21.air2, Initial residual = 0, Final residual = 0, No Iterations 0
diagonal:  Solving for f22.air2, Initial residual = 0, Final residual = 0, No Iterations 0
diagonal:  Solving for f23.air2, Initial residual = 0, Final residual = 0, No Iterations 0
diagonal:  Solving for f24.air2, Initial residual = 0, Final residual = 0, No Iterations 0
diagonal:  Solving for f25.air3, Initial residual = 0, Final residual = 0, No Iterations 0
diagonal:  Solving for f26.air3, Initial residual = 0, Final residual = 0, No Iterations 0
diagonal:  Solving for f27.air3, Initial residual = 0, Final residual = 0, No Iterations 0
diagonal:  Solving for f28.air3, Initial residual = 0, Final residual = 0, No Iterations 0
bubbles sizeGroup phase fraction first, last = 3.4539e-11 7.9192e-05
air1 sizeGroups-sum volume fraction, min, max = 1 1 1
air1 Sauter mean diameter, min, max = 0.324918 0.324918 0.324918
air2 sizeGroups-sum volume fraction, min, max = 1 1 1
air2 Sauter mean diameter, min, max = 0.636607 0.636607 0.636607
air3 sizeGroups-sum volume fraction, min, max = 1.00734 1.00734 1.00734
air3 Sauter mean diameter, min, max = 0.885003 0.885003 0.885003
Constructing momentum equations
diagonal:  Solving for p_rgh, Initial residual = 0, Final residual = 0, No Iterations 0
ExecutionTime = 1.88826 s  ClockTime = 1 s

End

