/*---------------------------------------------------------------------------*\
  =========                 |
  \\      /  F ield         | OpenFOAM: The Open Source CFD Toolbox
   \\    /   O peration     | Website:  https://openfoam.org
    \\  /    A nd           | Version:  12
     \\/     M anipulation  |
\*---------------------------------------------------------------------------*/
Build  : 12-cc05c1b03c38
Exec   : foamRun
Date   : Oct 15 2024
Time   : 06:08:53
Host   : "DESKTOP-KBPC6IC"
PID    : 248419
I/O    : uncollated
Case   : /home/as/openfoam/OpenFOAM-12/test/multiphaseEuler/populationBalance/simultaneousCoalescenceAndBreakup
nProcs : 1
sigFpe : Enabling floating point exception trapping (FOAM_SIGFPE).
fileModificationChecking : Monitoring run-time modified files using timeStampMaster (fileModificationSkew 10)
allowSystemOperations : Allowing user-supplied system call operations

// * * * * * * * * * * * * * * * * * * * * * * * * * * * * * * * * * * * * * //
Create time

Create mesh for time = 0

Selecting solver multiphaseEuler
Selecting phaseSystem populationBalanceMultiphaseSystem
No MRF models present

Selecting phaseModel for air1: pureIsothermalPhaseModel
Selecting diameterModel for phase air1: velocityGroup
Selecting thermodynamics package 
{
    type            heRhoThermo;
    mixture         pureMixture;
    transport       const;
    thermo          hConst;
    equationOfState perfectGas;
    specie          specie;
    energy          sensibleInternalEnergy;
}

Calculating face flux field phi.air1
Selecting turbulence model type laminar
Selecting laminar stress model Stokes
Selecting phaseModel for air2: pureIsothermalPhaseModel
Selecting diameterModel for phase air2: velocityGroup
Selecting thermodynamics package 
{
    type            heRhoThermo;
    mixture         pureMixture;
    transport       const;
    thermo          hConst;
    equationOfState perfectGas;
    specie          specie;
    energy          sensibleInternalEnergy;
}

Calculating face flux field phi.air2
Selecting turbulence model type laminar
Selecting laminar stress model Stokes
Selecting phaseModel for air3: pureIsothermalPhaseModel
Selecting diameterModel for phase air3: velocityGroup
Selecting thermodynamics package 
{
    type            heRhoThermo;
    mixture         pureMixture;
    transport       const;
    thermo          hConst;
    equationOfState perfectGas;
    specie          specie;
    energy          sensibleInternalEnergy;
}

Calculating face flux field phi.air3
Selecting turbulence model type laminar
Selecting laminar stress model Stokes
Selecting phaseModel for water: pureIsothermalPhaseModel
Selecting diameterModel for phase water: none
Selecting thermodynamics package 
{
    type            heRhoThermo;
    mixture         pureMixture;
    transport       const;
    thermo          eConst;
    equationOfState rhoConst;
    specie          specie;
    energy          sensibleInternalEnergy;
}

Calculating face flux field phi.water
Selecting turbulence model type laminar
Selecting laminar stress model Stokes
Setting up population balance: bubbles
Selecting coalescence model for bubbles: hydrodynamic
Selecting breakup model for bubbles: exponential
Selecting daughter size distribution model for bubbles: uniformBinary
Courant Number mean: 0 max: 0

PIMPLE: No convergence criteria found


PIMPLE: Operating solver in transient mode with 1 outer corrector
PIMPLE: Operating solver in PISO mode



Starting time loop

    - selecting all cells
    - selected 1 cell(s) with volume 1
    - selecting all cells
    - selected 1 cell(s) with volume 1
Courant Number mean: 0 max: 0
MULES: Solving for alpha.air1
MULES: Solving for alpha.air2
MULES: Solving for alpha.air3
MULES: Solving for alpha.water
air1 fraction, min, max = 1 1 1
air2 fraction, min, max = 0 0 0
air3 fraction, min, max = 0 0 0
water fraction, min, max = 0 0 0
Phase-sum volume fraction, min, max = 1 1 1
populationBalance bubbles: Iteration 1
diagonal:  Solving for f0.air1, Initial residual = 0, Final residual = 0, No Iterations 0
diagonal:  Solving for f1.air1, Initial residual = 0, Final residual = 0, No Iterations 0
diagonal:  Solving for f2.air1, Initial residual = 0, Final residual = 0, No Iterations 0
diagonal:  Solving for f3.air1, Initial residual = 0, Final residual = 0, No Iterations 0
diagonal:  Solving for f4.air1, Initial residual = 0, Final residual = 0, No Iterations 0
diagonal:  Solving for f5.air1, Initial residual = 0, Final residual = 0, No Iterations 0
diagonal:  Solving for f6.air1, Initial residual = 0, Final residual = 0, No Iterations 0
diagonal:  Solving for f7.air1, Initial residual = 0, Final residual = 0, No Iterations 0
diagonal:  Solving for f8.air1, Initial residual = 0, Final residual = 0, No Iterations 0
diagonal:  Solving for f9.air1, Initial residual = 0, Final residual = 0, No Iterations 0
diagonal:  Solving for f10.air1, Initial residual = 0, Final residual = 0, No Iterations 0
diagonal:  Solving for f11.air1, Initial residual = 0, Final residual = 0, No Iterations 0
diagonal:  Solving for f12.air1, Initial residual = 0, Final residual = 0, No Iterations 0
diagonal:  Solving for f13.air2, Initial residual = 0, Final residual = 0, No Iterations 0
diagonal:  Solving for f14.air2, Initial residual = 0, Final residual = 0, No Iterations 0
diagonal:  Solving for f15.air2, Initial residual = 0, Final residual = 0, No Iterations 0
diagonal:  Solving for f16.air2, Initial residual = 0, Final residual = 0, No Iterations 0
diagonal:  Solving for f17.air2, Initial residual = 0, Final residual = 0, No Iterations 0
diagonal:  Solving for f18.air2, Initial residual = 0, Final residual = 0, No Iterations 0
diagonal:  Solving for f19.air2, Initial residual = 0, Final residual = 0, No Iterations 0
diagonal:  Solving for f20.air2, Initial residual = 0, Final residual = 0, No Iterations 0
diagonal:  Solving for f21.air2, Initial residual = 0, Final residual = 0, No Iterations 0
diagonal:  Solving for f22.air2, Initial residual = 0, Final residual = 0, No Iterations 0
diagonal:  Solving for f23.air3, Initial residual = 0, Final residual = 0, No Iterations 0
diagonal:  Solving for f24.air3, Initial residual = 0, Final residual = 0, No Iterations 0
diagonal:  Solving for f25.air3, Initial residual = 0, Final residual = 0, No Iterations 0
diagonal:  Solving for f26.air3, Initial residual = 0, Final residual = 0, No Iterations 0
diagonal:  Solving for f27.air3, Initial residual = 0, Final residual = 0, No Iterations 0
diagonal:  Solving for f28.air3, Initial residual = 0, Final residual = 0, No Iterations 0
diagonal:  Solving for f29.air3, Initial residual = 0, Final residual = 0, No Iterations 0
diagonal:  Solving for f30.air3, Initial residual = 0, Final residual = 0, No Iterations 0
bubbles sizeGroup phase fraction first, last = 0.558036 0
Scaling sizeGroups for velocityGroup air1
air1 sizeGroups-sum volume fraction, min, max = 1 1 1
air1 Sauter mean diameter, min, max = 1.35182 1.35182 1.35182
Scaling sizeGroups for velocityGroup air2
air2 sizeGroups-sum volume fraction, min, max = 1 1 1
air2 Sauter mean diameter, min, max = 3.37667 3.37667 3.37667
Scaling sizeGroups for velocityGroup air3
air3 sizeGroups-sum volume fraction, min, max = 1 1 1
air3 Sauter mean diameter, min, max = 7.294 7.294 7.294
Constructing momentum equations
diagonal:  Solving for p_rgh, Initial residual = 0, Final residual = 0, No Iterations 0
Time = 0.1s

ExecutionTime = 0.415002 s  ClockTime = 0 s

Courant Number mean: 0 max: 0
MULES: Solving for alpha.air1
MULES: Solving for alpha.air2
MULES: Solving for alpha.air3
MULES: Solving for alpha.water
air1 fraction, min, max = 1 1 1
air2 fraction, min, max = 0 0 0
air3 fraction, min, max = 0 0 0
water fraction, min, max = 0 0 0
Phase-sum volume fraction, min, max = 1 1 1
populationBalance bubbles: Iteration 1
diagonal:  Solving for f0.air1, Initial residual = 0, Final residual = 0, No Iterations 0
diagonal:  Solving for f1.air1, Initial residual = 0, Final residual = 0, No Iterations 0
diagonal:  Solving for f2.air1, Initial residual = 0, Final residual = 0, No Iterations 0
diagonal:  Solving for f3.air1, Initial residual = 0, Final residual = 0, No Iterations 0
diagonal:  Solving for f4.air1, Initial residual = 0, Final residual = 0, No Iterations 0
diagonal:  Solving for f5.air1, Initial residual = 0, Final residual = 0, No Iterations 0
diagonal:  Solving for f6.air1, Initial residual = 0, Final residual = 0, No Iterations 0
diagonal:  Solving for f7.air1, Initial residual = 0, Final residual = 0, No Iterations 0
diagonal:  Solving for f8.air1, Initial residual = 0, Final residual = 0, No Iterations 0
diagonal:  Solving for f9.air1, Initial residual = 0, Final residual = 0, No Iterations 0
diagonal:  Solving for f10.air1, Initial residual = 0, Final residual = 0, No Iterations 0
diagonal:  Solving for f11.air1, Initial residual = 0, Final residual = 0, No Iterations 0
diagonal:  Solving for f12.air1, Initial residual = 0, Final residual = 0, No Iterations 0
diagonal:  Solving for f13.air2, Initial residual = 0, Final residual = 0, No Iterations 0
diagonal:  Solving for f14.air2, Initial residual = 0, Final residual = 0, No Iterations 0
diagonal:  Solving for f15.air2, Initial residual = 0, Final residual = 0, No Iterations 0
diagonal:  Solving for f16.air2, Initial residual = 0, Final residual = 0, No Iterations 0
diagonal:  Solving for f17.air2, Initial residual = 0, Final residual = 0, No Iterations 0
diagonal:  Solving for f18.air2, Initial residual = 0, Final residual = 0, No Iterations 0
diagonal:  Solving for f19.air2, Initial residual = 0, Final residual = 0, No Iterations 0
diagonal:  Solving for f20.air2, Initial residual = 0, Final residual = 0, No Iterations 0
diagonal:  Solving for f21.air2, Initial residual = 0, Final residual = 0, No Iterations 0
diagonal:  Solving for f22.air2, Initial residual = 0, Final residual = 0, No Iterations 0
diagonal:  Solving for f23.air3, Initial residual = 0, Final residual = 0, No Iterations 0
diagonal:  Solving for f24.air3, Initial residual = 0, Final residual = 0, No Iterations 0
diagonal:  Solving for f25.air3, Initial residual = 0, Final residual = 0, No Iterations 0
diagonal:  Solving for f26.air3, Initial residual = 0, Final residual = 0, No Iterations 0
diagonal:  Solving for f27.air3, Initial residual = 0, Final residual = 0, No Iterations 0
diagonal:  Solving for f28.air3, Initial residual = 0, Final residual = 0, No Iterations 0
diagonal:  Solving for f29.air3, Initial residual = 0, Final residual = 0, No Iterations 0
diagonal:  Solving for f30.air3, Initial residual = 0, Final residual = 0, No Iterations 0
bubbles sizeGroup phase fraction first, last = 0.352901 0
Scaling sizeGroups for velocityGroup air1
air1 sizeGroups-sum volume fraction, min, max = 1 1 1
air1 Sauter mean diameter, min, max = 1.47033 1.47033 1.47033
Scaling sizeGroups for velocityGroup air2
air2 sizeGroups-sum volume fraction, min, max = 1 1 1
air2 Sauter mean diameter, min, max = 3.37667 3.37667 3.37667
Scaling sizeGroups for velocityGroup air3
air3 sizeGroups-sum volume fraction, min, max = 1 1 1
air3 Sauter mean diameter, min, max = 7.294 7.294 7.294
Constructing momentum equations
diagonal:  Solving for p_rgh, Initial residual = 0, Final residual = 0, No Iterations 0
Time = 0.2s

ExecutionTime = 0.459876 s  ClockTime = 0 s

Courant Number mean: 0 max: 0
MULES: Solving for alpha.air1
MULES: Solving for alpha.air2
MULES: Solving for alpha.air3
MULES: Solving for alpha.water
air1 fraction, min, max = 1 1 1
air2 fraction, min, max = 0 0 0
air3 fraction, min, max = 0 0 0
water fraction, min, max = 0 0 0
Phase-sum volume fraction, min, max = 1 1 1
populationBalance bubbles: Iteration 1
diagonal:  Solving for f0.air1, Initial residual = 0, Final residual = 0, No Iterations 0
diagonal:  Solving for f1.air1, Initial residual = 0, Final residual = 0, No Iterations 0
diagonal:  Solving for f2.air1, Initial residual = 0, Final residual = 0, No Iterations 0
diagonal:  Solving for f3.air1, Initial residual = 0, Final residual = 0, No Iterations 0
diagonal:  Solving for f4.air1, Initial residual = 0, Final residual = 0, No Iterations 0
diagonal:  Solving for f5.air1, Initial residual = 0, Final residual = 0, No Iterations 0
diagonal:  Solving for f6.air1, Initial residual = 0, Final residual = 0, No Iterations 0
diagonal:  Solving for f7.air1, Initial residual = 0, Final residual = 0, No Iterations 0
diagonal:  Solving for f8.air1, Initial residual = 0, Final residual = 0, No Iterations 0
diagonal:  Solving for f9.air1, Initial residual = 0, Final residual = 0, No Iterations 0
diagonal:  Solving for f10.air1, Initial residual = 0, Final residual = 0, No Iterations 0
diagonal:  Solving for f11.air1, Initial residual = 0, Final residual = 0, No Iterations 0
diagonal:  Solving for f12.air1, Initial residual = 0, Final residual = 0, No Iterations 0
diagonal:  Solving for f13.air2, Initial residual = 0, Final residual = 0, No Iterations 0
diagonal:  Solving for f14.air2, Initial residual = 0, Final residual = 0, No Iterations 0
diagonal:  Solving for f15.air2, Initial residual = 0, Final residual = 0, No Iterations 0
diagonal:  Solving for f16.air2, Initial residual = 0, Final residual = 0, No Iterations 0
diagonal:  Solving for f17.air2, Initial residual = 0, Final residual = 0, No Iterations 0
diagonal:  Solving for f18.air2, Initial residual = 0, Final residual = 0, No Iterations 0
diagonal:  Solving for f19.air2, Initial residual = 0, Final residual = 0, No Iterations 0
diagonal:  Solving for f20.air2, Initial residual = 0, Final residual = 0, No Iterations 0
diagonal:  Solving for f21.air2, Initial residual = 0, Final residual = 0, No Iterations 0
diagonal:  Solving for f22.air2, Initial residual = 0, Final residual = 0, No Iterations 0
diagonal:  Solving for f23.air3, Initial residual = 0, Final residual = 0, No Iterations 0
diagonal:  Solving for f24.air3, Initial residual = 0, Final residual = 0, No Iterations 0
diagonal:  Solving for f25.air3, Initial residual = 0, Final residual = 0, No Iterations 0
diagonal:  Solving for f26.air3, Initial residual = 0, Final residual = 0, No Iterations 0
diagonal:  Solving for f27.air3, Initial residual = 0, Final residual = 0, No Iterations 0
diagonal:  Solving for f28.air3, Initial residual = 0, Final residual = 0, No Iterations 0
diagonal:  Solving for f29.air3, Initial residual = 0, Final residual = 0, No Iterations 0
diagonal:  Solving for f30.air3, Initial residual = 0, Final residual = 0, No Iterations 0
bubbles sizeGroup phase fraction first, last = 0.233388 0
Scaling sizeGroups for velocityGroup air1
air1 sizeGroups-sum volume fraction, min, max = 1 1 1
air1 Sauter mean diameter, min, max = 1.59653 1.59653 1.59653
Scaling sizeGroups for velocityGroup air2
air2 sizeGroups-sum volume fraction, min, max = 1 1 1
air2 Sauter mean diameter, min, max = 3.37667 3.37667 3.37667
Scaling sizeGroups for velocityGroup air3
air3 sizeGroups-sum volume fraction, min, max = 1 1 1
air3 Sauter mean diameter, min, max = 7.294 7.294 7.294
Constructing momentum equations
diagonal:  Solving for p_rgh, Initial residual = 0, Final residual = 0, No Iterations 0
Time = 0.3s

ExecutionTime = 0.502497 s  ClockTime = 0 s

Courant Number mean: 0 max: 0
MULES: Solving for alpha.air1
MULES: Solving for alpha.air2
MULES: Solving for alpha.air3
MULES: Solving for alpha.water
air1 fraction, min, max = 1 1 1
air2 fraction, min, max = 0 0 0
air3 fraction, min, max = 0 0 0
water fraction, min, max = 0 0 0
Phase-sum volume fraction, min, max = 1 1 1
populationBalance bubbles: Iteration 1
diagonal:  Solving for f0.air1, Initial residual = 0, Final residual = 0, No Iterations 0
diagonal:  Solving for f1.air1, Initial residual = 0, Final residual = 0, No Iterations 0
diagonal:  Solving for f2.air1, Initial residual = 0, Final residual = 0, No Iterations 0
diagonal:  Solving for f3.air1, Initial residual = 0, Final residual = 0, No Iterations 0
diagonal:  Solving for f4.air1, Initial residual = 0, Final residual = 0, No Iterations 0
diagonal:  Solving for f5.air1, Initial residual = 0, Final residual = 0, No Iterations 0
diagonal:  Solving for f6.air1, Initial residual = 0, Final residual = 0, No Iterations 0
diagonal:  Solving for f7.air1, Initial residual = 0, Final residual = 0, No Iterations 0
diagonal:  Solving for f8.air1, Initial residual = 0, Final residual = 0, No Iterations 0
diagonal:  Solving for f9.air1, Initial residual = 0, Final residual = 0, No Iterations 0
diagonal:  Solving for f10.air1, Initial residual = 0, Final residual = 0, No Iterations 0
diagonal:  Solving for f11.air1, Initial residual = 0, Final residual = 0, No Iterations 0
diagonal:  Solving for f12.air1, Initial residual = 0, Final residual = 0, No Iterations 0
diagonal:  Solving for f13.air2, Initial residual = 0, Final residual = 0, No Iterations 0
diagonal:  Solving for f14.air2, Initial residual = 0, Final residual = 0, No Iterations 0
diagonal:  Solving for f15.air2, Initial residual = 0, Final residual = 0, No Iterations 0
diagonal:  Solving for f16.air2, Initial residual = 0, Final residual = 0, No Iterations 0
diagonal:  Solving for f17.air2, Initial residual = 0, Final residual = 0, No Iterations 0
diagonal:  Solving for f18.air2, Initial residual = 0, Final residual = 0, No Iterations 0
diagonal:  Solving for f19.air2, Initial residual = 0, Final residual = 0, No Iterations 0
diagonal:  Solving for f20.air2, Initial residual = 0, Final residual = 0, No Iterations 0
diagonal:  Solving for f21.air2, Initial residual = 0, Final residual = 0, No Iterations 0
diagonal:  Solving for f22.air2, Initial residual = 0, Final residual = 0, No Iterations 0
diagonal:  Solving for f23.air3, Initial residual = 0, Final residual = 0, No Iterations 0
diagonal:  Solving for f24.air3, Initial residual = 0, Final residual = 0, No Iterations 0
diagonal:  Solving for f25.air3, Initial residual = 0, Final residual = 0, No Iterations 0
diagonal:  Solving for f26.air3, Initial residual = 0, Final residual = 0, No Iterations 0
diagonal:  Solving for f27.air3, Initial residual = 0, Final residual = 0, No Iterations 0
diagonal:  Solving for f28.air3, Initial residual = 0, Final residual = 0, No Iterations 0
diagonal:  Solving for f29.air3, Initial residual = 0, Final residual = 0, No Iterations 0
diagonal:  Solving for f30.air3, Initial residual = 0, Final residual = 0, No Iterations 0
bubbles sizeGroup phase fraction first, last = 0.160586 0
Scaling sizeGroups for velocityGroup air1
air1 sizeGroups-sum volume fraction, min, max = 1 1 1
air1 Sauter mean diameter, min, max = 1.73074 1.73074 1.73074
Scaling sizeGroups for velocityGroup air2
air2 sizeGroups-sum volume fraction, min, max = 1 1 1
air2 Sauter mean diameter, min, max = 3.37667 3.37667 3.37667
Scaling sizeGroups for velocityGroup air3
air3 sizeGroups-sum volume fraction, min, max = 1 1 1
air3 Sauter mean diameter, min, max = 7.294 7.294 7.294
Constructing momentum equations
diagonal:  Solving for p_rgh, Initial residual = 0, Final residual = 0, No Iterations 0
Time = 0.4s

ExecutionTime = 0.552261 s  ClockTime = 0 s

Courant Number mean: 0 max: 0
MULES: Solving for alpha.air1
MULES: Solving for alpha.air2
MULES: Solving for alpha.air3
MULES: Solving for alpha.water
air1 fraction, min, max = 1 1 1
air2 fraction, min, max = 1.1252e-14 1.1252e-14 1.1252e-14
air3 fraction, min, max = 0 0 0
water fraction, min, max = 0 0 0
Phase-sum volume fraction, min, max = 1 1 1
populationBalance bubbles: Iteration 1
diagonal:  Solving for f0.air1, Initial residual = 0, Final residual = 0, No Iterations 0
diagonal:  Solving for f1.air1, Initial residual = 0, Final residual = 0, No Iterations 0
diagonal:  Solving for f2.air1, Initial residual = 0, Final residual = 0, No Iterations 0
diagonal:  Solving for f3.air1, Initial residual = 0, Final residual = 0, No Iterations 0
diagonal:  Solving for f4.air1, Initial residual = 0, Final residual = 0, No Iterations 0
diagonal:  Solving for f5.air1, Initial residual = 0, Final residual = 0, No Iterations 0
diagonal:  Solving for f6.air1, Initial residual = 0, Final residual = 0, No Iterations 0
diagonal:  Solving for f7.air1, Initial residual = 0, Final residual = 0, No Iterations 0
diagonal:  Solving for f8.air1, Initial residual = 0, Final residual = 0, No Iterations 0
diagonal:  Solving for f9.air1, Initial residual = 0, Final residual = 0, No Iterations 0
diagonal:  Solving for f10.air1, Initial residual = 0, Final residual = 0, No Iterations 0
diagonal:  Solving for f11.air1, Initial residual = 0, Final residual = 0, No Iterations 0
diagonal:  Solving for f12.air1, Initial residual = 0, Final residual = 0, No Iterations 0
diagonal:  Solving for f13.air2, Initial residual = 0, Final residual = 0, No Iterations 0
diagonal:  Solving for f14.air2, Initial residual = 0, Final residual = 0, No Iterations 0
diagonal:  Solving for f15.air2, Initial residual = 0, Final residual = 0, No Iterations 0
diagonal:  Solving for f16.air2, Initial residual = 0, Final residual = 0, No Iterations 0
diagonal:  Solving for f17.air2, Initial residual = 0, Final residual = 0, No Iterations 0
diagonal:  Solving for f18.air2, Initial residual = 0, Final residual = 0, No Iterations 0
diagonal:  Solving for f19.air2, Initial residual = 0, Final residual = 0, No Iterations 0
diagonal:  Solving for f20.air2, Initial residual = 0, Final residual = 0, No Iterations 0
diagonal:  Solving for f21.air2, Initial residual = 0, Final residual = 0, No Iterations 0
diagonal:  Solving for f22.air2, Initial residual = 0, Final residual = 0, No Iterations 0
diagonal:  Solving for f23.air3, Initial residual = 0, Final residual = 0, No Iterations 0
diagonal:  Solving for f24.air3, Initial residual = 0, Final residual = 0, No Iterations 0
diagonal:  Solving for f25.air3, Initial residual = 0, Final residual = 0, No Iterations 0
diagonal:  Solving for f26.air3, Initial residual = 0, Final residual = 0, No Iterations 0
diagonal:  Solving for f27.air3, Initial residual = 0, Final residual = 0, No Iterations 0
diagonal:  Solving for f28.air3, Initial residual = 0, Final residual = 0, No Iterations 0
diagonal:  Solving for f29.air3, Initial residual = 0, Final residual = 0, No Iterations 0
diagonal:  Solving for f30.air3, Initial residual = 0, Final residual = 0, No Iterations 0
bubbles sizeGroup phase fraction first, last = 0.114577 0
Scaling sizeGroups for velocityGroup air1
air1 sizeGroups-sum volume fraction, min, max = 1 1 1
air1 Sauter mean diameter, min, max = 1.87287 1.87287 1.87287
Scaling sizeGroups for velocityGroup air2
air2 sizeGroups-sum volume fraction, min, max = 1 1 1
air2 Sauter mean diameter, min, max = 3.38379 3.38379 3.38379
Scaling sizeGroups for velocityGroup air3
air3 sizeGroups-sum volume fraction, min, max = 1 1 1
air3 Sauter mean diameter, min, max = 7.294 7.294 7.294
Constructing momentum equations
diagonal:  Solving for p_rgh, Initial residual = 0, Final residual = 0, No Iterations 0
Time = 0.5s

ExecutionTime = 0.592758 s  ClockTime = 0 s

Courant Number mean: 0 max: 0
MULES: Solving for alpha.air1
MULES: Solving for alpha.air2
MULES: Solving for alpha.air3
MULES: Solving for alpha.water
air1 fraction, min, max = 0.998257 0.998257 0.998257
air2 fraction, min, max = 0.00174343 0.00174343 0.00174343
air3 fraction, min, max = 0 0 0
water fraction, min, max = 0 0 0
Phase-sum volume fraction, min, max = 1 1 1
populationBalance bubbles: Iteration 1
diagonal:  Solving for f0.air1, Initial residual = 0, Final residual = 0, No Iterations 0
diagonal:  Solving for f1.air1, Initial residual = 0, Final residual = 0, No Iterations 0
diagonal:  Solving for f2.air1, Initial residual = 0, Final residual = 0, No Iterations 0
diagonal:  Solving for f3.air1, Initial residual = 0, Final residual = 0, No Iterations 0
diagonal:  Solving for f4.air1, Initial residual = 0, Final residual = 0, No Iterations 0
diagonal:  Solving for f5.air1, Initial residual = 0, Final residual = 0, No Iterations 0
diagonal:  Solving for f6.air1, Initial residual = 0, Final residual = 0, No Iterations 0
diagonal:  Solving for f7.air1, Initial residual = 0, Final residual = 0, No Iterations 0
diagonal:  Solving for f8.air1, Initial residual = 0, Final residual = 0, No Iterations 0
diagonal:  Solving for f9.air1, Initial residual = 0, Final residual = 0, No Iterations 0
diagonal:  Solving for f10.air1, Initial residual = 0, Final residual = 0, No Iterations 0
diagonal:  Solving for f11.air1, Initial residual = 0, Final residual = 0, No Iterations 0
diagonal:  Solving for f12.air1, Initial residual = 0, Final residual = 0, No Iterations 0
diagonal:  Solving for f13.air2, Initial residual = 0, Final residual = 0, No Iterations 0
diagonal:  Solving for f14.air2, Initial residual = 0, Final residual = 0, No Iterations 0
diagonal:  Solving for f15.air2, Initial residual = 0, Final residual = 0, No Iterations 0
diagonal:  Solving for f16.air2, Initial residual = 0, Final residual = 0, No Iterations 0
diagonal:  Solving for f17.air2, Initial residual = 0, Final residual = 0, No Iterations 0
diagonal:  Solving for f18.air2, Initial residual = 0, Final residual = 0, No Iterations 0
diagonal:  Solving for f19.air2, Initial residual = 0, Final residual = 0, No Iterations 0
diagonal:  Solving for f20.air2, Initial residual = 0, Final residual = 0, No Iterations 0
diagonal:  Solving for f21.air2, Initial residual = 0, Final residual = 0, No Iterations 0
diagonal:  Solving for f22.air2, Initial residual = 0, Final residual = 0, No Iterations 0
diagonal:  Solving for f23.air3, Initial residual = 0, Final residual = 0, No Iterations 0
diagonal:  Solving for f24.air3, Initial residual = 0, Final residual = 0, No Iterations 0
diagonal:  Solving for f25.air3, Initial residual = 0, Final residual = 0, No Iterations 0
diagonal:  Solving for f26.air3, Initial residual = 0, Final residual = 0, No Iterations 0
diagonal:  Solving for f27.air3, Initial residual = 0, Final residual = 0, No Iterations 0
diagonal:  Solving for f28.air3, Initial residual = 0, Final residual = 0, No Iterations 0
diagonal:  Solving for f29.air3, Initial residual = 0, Final residual = 0, No Iterations 0
diagonal:  Solving for f30.air3, Initial residual = 0, Final residual = 0, No Iterations 0
bubbles sizeGroup phase fraction first, last = 0.086164 0
Scaling sizeGroups for velocityGroup air1
air1 sizeGroups-sum volume fraction, min, max = 1 1 1
air1 Sauter mean diameter, min, max = 2.0132 2.0132 2.0132
Scaling sizeGroups for velocityGroup air2
air2 sizeGroups-sum volume fraction, min, max = 1 1 1
air2 Sauter mean diameter, min, max = 3.43057 3.43057 3.43057
Scaling sizeGroups for velocityGroup air3
air3 sizeGroups-sum volume fraction, min, max = 1 1 1
air3 Sauter mean diameter, min, max = 7.294 7.294 7.294
Constructing momentum equations
diagonal:  Solving for p_rgh, Initial residual = 0, Final residual = 0, No Iterations 0
Time = 0.6s

ExecutionTime = 0.639016 s  ClockTime = 0 s

Courant Number mean: 0 max: 0
MULES: Solving for alpha.air1
MULES: Solving for alpha.air2
MULES: Solving for alpha.air3
MULES: Solving for alpha.water
air1 fraction, min, max = 0.964306 0.964306 0.964306
air2 fraction, min, max = 0.0356943 0.0356943 0.0356943
air3 fraction, min, max = 0 0 0
water fraction, min, max = 0 0 0
Phase-sum volume fraction, min, max = 1 1 1
populationBalance bubbles: Iteration 1
diagonal:  Solving for f0.air1, Initial residual = 0, Final residual = 0, No Iterations 0
diagonal:  Solving for f1.air1, Initial residual = 0, Final residual = 0, No Iterations 0
diagonal:  Solving for f2.air1, Initial residual = 0, Final residual = 0, No Iterations 0
diagonal:  Solving for f3.air1, Initial residual = 0, Final residual = 0, No Iterations 0
diagonal:  Solving for f4.air1, Initial residual = 0, Final residual = 0, No Iterations 0
diagonal:  Solving for f5.air1, Initial residual = 0, Final residual = 0, No Iterations 0
diagonal:  Solving for f6.air1, Initial residual = 0, Final residual = 0, No Iterations 0
diagonal:  Solving for f7.air1, Initial residual = 0, Final residual = 0, No Iterations 0
diagonal:  Solving for f8.air1, Initial residual = 0, Final residual = 0, No Iterations 0
diagonal:  Solving for f9.air1, Initial residual = 0, Final residual = 0, No Iterations 0
diagonal:  Solving for f10.air1, Initial residual = 0, Final residual = 0, No Iterations 0
diagonal:  Solving for f11.air1, Initial residual = 0, Final residual = 0, No Iterations 0
diagonal:  Solving for f12.air1, Initial residual = 0, Final residual = 0, No Iterations 0
diagonal:  Solving for f13.air2, Initial residual = 0, Final residual = 0, No Iterations 0
diagonal:  Solving for f14.air2, Initial residual = 0, Final residual = 0, No Iterations 0
diagonal:  Solving for f15.air2, Initial residual = 0, Final residual = 0, No Iterations 0
diagonal:  Solving for f16.air2, Initial residual = 0, Final residual = 0, No Iterations 0
diagonal:  Solving for f17.air2, Initial residual = 0, Final residual = 0, No Iterations 0
diagonal:  Solving for f18.air2, Initial residual = 0, Final residual = 0, No Iterations 0
diagonal:  Solving for f19.air2, Initial residual = 0, Final residual = 0, No Iterations 0
diagonal:  Solving for f20.air2, Initial residual = 0, Final residual = 0, No Iterations 0
diagonal:  Solving for f21.air2, Initial residual = 0, Final residual = 0, No Iterations 0
diagonal:  Solving for f22.air2, Initial residual = 0, Final residual = 0, No Iterations 0
diagonal:  Solving for f23.air3, Initial residual = 0, Final residual = 0, No Iterations 0
diagonal:  Solving for f24.air3, Initial residual = 0, Final residual = 0, No Iterations 0
diagonal:  Solving for f25.air3, Initial residual = 0, Final residual = 0, No Iterations 0
diagonal:  Solving for f26.air3, Initial residual = 0, Final residual = 0, No Iterations 0
diagonal:  Solving for f27.air3, Initial residual = 0, Final residual = 0, No Iterations 0
diagonal:  Solving for f28.air3, Initial residual = 0, Final residual = 0, No Iterations 0
diagonal:  Solving for f29.air3, Initial residual = 0, Final residual = 0, No Iterations 0
diagonal:  Solving for f30.air3, Initial residual = 0, Final residual = 0, No Iterations 0
bubbles sizeGroup phase fraction first, last = 0.0702481 0
Scaling sizeGroups for velocityGroup air1
air1 sizeGroups-sum volume fraction, min, max = 1 1 1
air1 Sauter mean diameter, min, max = 2.12083 2.12083 2.12083
Scaling sizeGroups for velocityGroup air2
air2 sizeGroups-sum volume fraction, min, max = 1 1 1
air2 Sauter mean diameter, min, max = 3.52879 3.52879 3.52879
Scaling sizeGroups for velocityGroup air3
air3 sizeGroups-sum volume fraction, min, max = 1 1 1
air3 Sauter mean diameter, min, max = 7.294 7.294 7.294
Constructing momentum equations
diagonal:  Solving for p_rgh, Initial residual = 0, Final residual = 0, No Iterations 0
Time = 0.7s

ExecutionTime = 0.693831 s  ClockTime = 1 s

Courant Number mean: 0 max: 0
MULES: Solving for alpha.air1
MULES: Solving for alpha.air2
MULES: Solving for alpha.air3
MULES: Solving for alpha.water
air1 fraction, min, max = 0.841449 0.841449 0.841449
air2 fraction, min, max = 0.158551 0.158551 0.158551
air3 fraction, min, max = 1.34564e-54 1.34564e-54 1.34564e-54
water fraction, min, max = 0 0 0
Phase-sum volume fraction, min, max = 1 1 1
populationBalance bubbles: Iteration 1
diagonal:  Solving for f0.air1, Initial residual = 0, Final residual = 0, No Iterations 0
diagonal:  Solving for f1.air1, Initial residual = 0, Final residual = 0, No Iterations 0
diagonal:  Solving for f2.air1, Initial residual = 0, Final residual = 0, No Iterations 0
diagonal:  Solving for f3.air1, Initial residual = 0, Final residual = 0, No Iterations 0
diagonal:  Solving for f4.air1, Initial residual = 0, Final residual = 0, No Iterations 0
diagonal:  Solving for f5.air1, Initial residual = 0, Final residual = 0, No Iterations 0
diagonal:  Solving for f6.air1, Initial residual = 0, Final residual = 0, No Iterations 0
diagonal:  Solving for f7.air1, Initial residual = 0, Final residual = 0, No Iterations 0
diagonal:  Solving for f8.air1, Initial residual = 0, Final residual = 0, No Iterations 0
diagonal:  Solving for f9.air1, Initial residual = 0, Final residual = 0, No Iterations 0
diagonal:  Solving for f10.air1, Initial residual = 0, Final residual = 0, No Iterations 0
diagonal:  Solving for f11.air1, Initial residual = 0, Final residual = 0, No Iterations 0
diagonal:  Solving for f12.air1, Initial residual = 0, Final residual = 0, No Iterations 0
diagonal:  Solving for f13.air2, Initial residual = 0, Final residual = 0, No Iterations 0
diagonal:  Solving for f14.air2, Initial residual = 0, Final residual = 0, No Iterations 0
diagonal:  Solving for f15.air2, Initial residual = 0, Final residual = 0, No Iterations 0
diagonal:  Solving for f16.air2, Initial residual = 0, Final residual = 0, No Iterations 0
diagonal:  Solving for f17.air2, Initial residual = 0, Final residual = 0, No Iterations 0
diagonal:  Solving for f18.air2, Initial residual = 0, Final residual = 0, No Iterations 0
diagonal:  Solving for f19.air2, Initial residual = 0, Final residual = 0, No Iterations 0
diagonal:  Solving for f20.air2, Initial residual = 0, Final residual = 0, No Iterations 0
diagonal:  Solving for f21.air2, Initial residual = 0, Final residual = 0, No Iterations 0
diagonal:  Solving for f22.air2, Initial residual = 0, Final residual = 0, No Iterations 0
diagonal:  Solving for f23.air3, Initial residual = 0, Final residual = 0, No Iterations 0
diagonal:  Solving for f24.air3, Initial residual = 0, Final residual = 0, No Iterations 0
diagonal:  Solving for f25.air3, Initial residual = 0, Final residual = 0, No Iterations 0
diagonal:  Solving for f26.air3, Initial residual = 0, Final residual = 0, No Iterations 0
diagonal:  Solving for f27.air3, Initial residual = 0, Final residual = 0, No Iterations 0
diagonal:  Solving for f28.air3, Initial residual = 0, Final residual = 0, No Iterations 0
diagonal:  Solving for f29.air3, Initial residual = 0, Final residual = 0, No Iterations 0
diagonal:  Solving for f30.air3, Initial residual = 0, Final residual = 0, No Iterations 0
bubbles sizeGroup phase fraction first, last = 0.0591024 0
Scaling sizeGroups for velocityGroup air1
air1 sizeGroups-sum volume fraction, min, max = 1 1 1
air1 Sauter mean diameter, min, max = 2.17511 2.17511 2.17511
Scaling sizeGroups for velocityGroup air2
air2 sizeGroups-sum volume fraction, min, max = 1 1 1
air2 Sauter mean diameter, min, max = 3.66906 3.66906 3.66906
Scaling sizeGroups for velocityGroup air3
air3 sizeGroups-sum volume fraction, min, max = 1 1 1
air3 Sauter mean diameter, min, max = 7.294 7.294 7.294
Constructing momentum equations
diagonal:  Solving for p_rgh, Initial residual = 0, Final residual = 0, No Iterations 0
Time = 0.8s

ExecutionTime = 0.749976 s  ClockTime = 1 s

Courant Number mean: 0 max: 0
MULES: Solving for alpha.air1
MULES: Solving for alpha.air2
MULES: Solving for alpha.air3
MULES: Solving for alpha.water
air1 fraction, min, max = 0.656985 0.656985 0.656985
air2 fraction, min, max = 0.343015 0.343015 0.343015
air3 fraction, min, max = 9.97682e-18 9.97682e-18 9.97682e-18
water fraction, min, max = 0 0 0
Phase-sum volume fraction, min, max = 1 1 1
populationBalance bubbles: Iteration 1
diagonal:  Solving for f0.air1, Initial residual = 0, Final residual = 0, No Iterations 0
diagonal:  Solving for f1.air1, Initial residual = 0, Final residual = 0, No Iterations 0
diagonal:  Solving for f2.air1, Initial residual = 0, Final residual = 0, No Iterations 0
diagonal:  Solving for f3.air1, Initial residual = 0, Final residual = 0, No Iterations 0
diagonal:  Solving for f4.air1, Initial residual = 0, Final residual = 0, No Iterations 0
diagonal:  Solving for f5.air1, Initial residual = 0, Final residual = 0, No Iterations 0
diagonal:  Solving for f6.air1, Initial residual = 0, Final residual = 0, No Iterations 0
diagonal:  Solving for f7.air1, Initial residual = 0, Final residual = 0, No Iterations 0
diagonal:  Solving for f8.air1, Initial residual = 0, Final residual = 0, No Iterations 0
diagonal:  Solving for f9.air1, Initial residual = 0, Final residual = 0, No Iterations 0
diagonal:  Solving for f10.air1, Initial residual = 0, Final residual = 0, No Iterations 0
diagonal:  Solving for f11.air1, Initial residual = 0, Final residual = 0, No Iterations 0
diagonal:  Solving for f12.air1, Initial residual = 0, Final residual = 0, No Iterations 0
diagonal:  Solving for f13.air2, Initial residual = 0, Final residual = 0, No Iterations 0
diagonal:  Solving for f14.air2, Initial residual = 0, Final residual = 0, No Iterations 0
diagonal:  Solving for f15.air2, Initial residual = 0, Final residual = 0, No Iterations 0
diagonal:  Solving for f16.air2, Initial residual = 0, Final residual = 0, No Iterations 0
diagonal:  Solving for f17.air2, Initial residual = 0, Final residual = 0, No Iterations 0
diagonal:  Solving for f18.air2, Initial residual = 0, Final residual = 0, No Iterations 0
diagonal:  Solving for f19.air2, Initial residual = 0, Final residual = 0, No Iterations 0
diagonal:  Solving for f20.air2, Initial residual = 0, Final residual = 0, No Iterations 0
diagonal:  Solving for f21.air2, Initial residual = 0, Final residual = 0, No Iterations 0
diagonal:  Solving for f22.air2, Initial residual = 0, Final residual = 0, No Iterations 0
diagonal:  Solving for f23.air3, Initial residual = 0, Final residual = 0, No Iterations 0
diagonal:  Solving for f24.air3, Initial residual = 0, Final residual = 0, No Iterations 0
diagonal:  Solving for f25.air3, Initial residual = 0, Final residual = 0, No Iterations 0
diagonal:  Solving for f26.air3, Initial residual = 0, Final residual = 0, No Iterations 0
diagonal:  Solving for f27.air3, Initial residual = 0, Final residual = 0, No Iterations 0
diagonal:  Solving for f28.air3, Initial residual = 0, Final residual = 0, No Iterations 0
diagonal:  Solving for f29.air3, Initial residual = 0, Final residual = 0, No Iterations 0
diagonal:  Solving for f30.air3, Initial residual = 0, Final residual = 0, No Iterations 0
bubbles sizeGroup phase fraction first, last = 0.0478435 1.36304e-192
Scaling sizeGroups for velocityGroup air1
air1 sizeGroups-sum volume fraction, min, max = 1 1 1
air1 Sauter mean diameter, min, max = 2.18961 2.18961 2.18961
Scaling sizeGroups for velocityGroup air2
air2 sizeGroups-sum volume fraction, min, max = 1 1 1
air2 Sauter mean diameter, min, max = 3.84142 3.84142 3.84142
Scaling sizeGroups for velocityGroup air3
air3 sizeGroups-sum volume fraction, min, max = 1 1 1
air3 Sauter mean diameter, min, max = 7.294 7.294 7.294
Constructing momentum equations
diagonal:  Solving for p_rgh, Initial residual = 0, Final residual = 0, No Iterations 0
Time = 0.9s

ExecutionTime = 0.801361 s  ClockTime = 1 s

Courant Number mean: 0 max: 0
MULES: Solving for alpha.air1
MULES: Solving for alpha.air2
MULES: Solving for alpha.air3
MULES: Solving for alpha.water
air1 fraction, min, max = 0.48283 0.48283 0.48283
air2 fraction, min, max = 0.51717 0.51717 0.51717
air3 fraction, min, max = 2.1072e-10 2.1072e-10 2.1072e-10
water fraction, min, max = 0 0 0
Phase-sum volume fraction, min, max = 1 1 1
populationBalance bubbles: Iteration 1
diagonal:  Solving for f0.air1, Initial residual = 0, Final residual = 0, No Iterations 0
diagonal:  Solving for f1.air1, Initial residual = 0, Final residual = 0, No Iterations 0
diagonal:  Solving for f2.air1, Initial residual = 0, Final residual = 0, No Iterations 0
diagonal:  Solving for f3.air1, Initial residual = 0, Final residual = 0, No Iterations 0
diagonal:  Solving for f4.air1, Initial residual = 0, Final residual = 0, No Iterations 0
diagonal:  Solving for f5.air1, Initial residual = 0, Final residual = 0, No Iterations 0
diagonal:  Solving for f6.air1, Initial residual = 0, Final residual = 0, No Iterations 0
diagonal:  Solving for f7.air1, Initial residual = 0, Final residual = 0, No Iterations 0
diagonal:  Solving for f8.air1, Initial residual = 0, Final residual = 0, No Iterations 0
diagonal:  Solving for f9.air1, Initial residual = 0, Final residual = 0, No Iterations 0
diagonal:  Solving for f10.air1, Initial residual = 0, Final residual = 0, No Iterations 0
diagonal:  Solving for f11.air1, Initial residual = 0, Final residual = 0, No Iterations 0
diagonal:  Solving for f12.air1, Initial residual = 0, Final residual = 0, No Iterations 0
diagonal:  Solving for f13.air2, Initial residual = 0, Final residual = 0, No Iterations 0
diagonal:  Solving for f14.air2, Initial residual = 0, Final residual = 0, No Iterations 0
diagonal:  Solving for f15.air2, Initial residual = 0, Final residual = 0, No Iterations 0
diagonal:  Solving for f16.air2, Initial residual = 0, Final residual = 0, No Iterations 0
diagonal:  Solving for f17.air2, Initial residual = 0, Final residual = 0, No Iterations 0
diagonal:  Solving for f18.air2, Initial residual = 0, Final residual = 0, No Iterations 0
diagonal:  Solving for f19.air2, Initial residual = 0, Final residual = 0, No Iterations 0
diagonal:  Solving for f20.air2, Initial residual = 0, Final residual = 0, No Iterations 0
diagonal:  Solving for f21.air2, Initial residual = 0, Final residual = 0, No Iterations 0
diagonal:  Solving for f22.air2, Initial residual = 0, Final residual = 0, No Iterations 0
diagonal:  Solving for f23.air3, Initial residual = 0, Final residual = 0, No Iterations 0
diagonal:  Solving for f24.air3, Initial residual = 0, Final residual = 0, No Iterations 0
diagonal:  Solving for f25.air3, Initial residual = 0, Final residual = 0, No Iterations 0
diagonal:  Solving for f26.air3, Initial residual = 0, Final residual = 0, No Iterations 0
diagonal:  Solving for f27.air3, Initial residual = 0, Final residual = 0, No Iterations 0
diagonal:  Solving for f28.air3, Initial residual = 0, Final residual = 0, No Iterations 0
diagonal:  Solving for f29.air3, Initial residual = 0, Final residual = 0, No Iterations 0
diagonal:  Solving for f30.air3, Initial residual = 0, Final residual = 0, No Iterations 0
bubbles sizeGroup phase fraction first, last = 0.0374447 9.35535e-76
Scaling sizeGroups for velocityGroup air1
air1 sizeGroups-sum volume fraction, min, max = 1 1 1
air1 Sauter mean diameter, min, max = 2.18329 2.18329 2.18329
Scaling sizeGroups for velocityGroup air2
air2 sizeGroups-sum volume fraction, min, max = 1 1 1
air2 Sauter mean diameter, min, max = 4.03832 4.03832 4.03832
Scaling sizeGroups for velocityGroup air3
air3 sizeGroups-sum volume fraction, min, max = 1 1 1
air3 Sauter mean diameter, min, max = 7.29521 7.29521 7.29521
Constructing momentum equations
diagonal:  Solving for p_rgh, Initial residual = 0, Final residual = 0, No Iterations 0
Time = 1s

ExecutionTime = 0.846406 s  ClockTime = 1 s

Courant Number mean: 0 max: 0
MULES: Solving for alpha.air1
MULES: Solving for alpha.air2
MULES: Solving for alpha.air3
MULES: Solving for alpha.water
air1 fraction, min, max = 0.348488 0.348488 0.348488
air2 fraction, min, max = 0.651511 0.651511 0.651511
air3 fraction, min, max = 2.02882e-06 2.02882e-06 2.02882e-06
water fraction, min, max = 0 0 0
Phase-sum volume fraction, min, max = 1 1 1
populationBalance bubbles: Iteration 1
diagonal:  Solving for f0.air1, Initial residual = 0, Final residual = 0, No Iterations 0
diagonal:  Solving for f1.air1, Initial residual = 0, Final residual = 0, No Iterations 0
diagonal:  Solving for f2.air1, Initial residual = 0, Final residual = 0, No Iterations 0
diagonal:  Solving for f3.air1, Initial residual = 0, Final residual = 0, No Iterations 0
diagonal:  Solving for f4.air1, Initial residual = 0, Final residual = 0, No Iterations 0
diagonal:  Solving for f5.air1, Initial residual = 0, Final residual = 0, No Iterations 0
diagonal:  Solving for f6.air1, Initial residual = 0, Final residual = 0, No Iterations 0
diagonal:  Solving for f7.air1, Initial residual = 0, Final residual = 0, No Iterations 0
diagonal:  Solving for f8.air1, Initial residual = 0, Final residual = 0, No Iterations 0
diagonal:  Solving for f9.air1, Initial residual = 0, Final residual = 0, No Iterations 0
diagonal:  Solving for f10.air1, Initial residual = 0, Final residual = 0, No Iterations 0
diagonal:  Solving for f11.air1, Initial residual = 0, Final residual = 0, No Iterations 0
diagonal:  Solving for f12.air1, Initial residual = 0, Final residual = 0, No Iterations 0
diagonal:  Solving for f13.air2, Initial residual = 0, Final residual = 0, No Iterations 0
diagonal:  Solving for f14.air2, Initial residual = 0, Final residual = 0, No Iterations 0
diagonal:  Solving for f15.air2, Initial residual = 0, Final residual = 0, No Iterations 0
diagonal:  Solving for f16.air2, Initial residual = 0, Final residual = 0, No Iterations 0
diagonal:  Solving for f17.air2, Initial residual = 0, Final residual = 0, No Iterations 0
diagonal:  Solving for f18.air2, Initial residual = 0, Final residual = 0, No Iterations 0
diagonal:  Solving for f19.air2, Initial residual = 0, Final residual = 0, No Iterations 0
diagonal:  Solving for f20.air2, Initial residual = 0, Final residual = 0, No Iterations 0
diagonal:  Solving for f21.air2, Initial residual = 0, Final residual = 0, No Iterations 0
diagonal:  Solving for f22.air2, Initial residual = 0, Final residual = 0, No Iterations 0
diagonal:  Solving for f23.air3, Initial residual = 0, Final residual = 0, No Iterations 0
diagonal:  Solving for f24.air3, Initial residual = 0, Final residual = 0, No Iterations 0
diagonal:  Solving for f25.air3, Initial residual = 0, Final residual = 0, No Iterations 0
diagonal:  Solving for f26.air3, Initial residual = 0, Final residual = 0, No Iterations 0
diagonal:  Solving for f27.air3, Initial residual = 0, Final residual = 0, No Iterations 0
diagonal:  Solving for f28.air3, Initial residual = 0, Final residual = 0, No Iterations 0
diagonal:  Solving for f29.air3, Initial residual = 0, Final residual = 0, No Iterations 0
diagonal:  Solving for f30.air3, Initial residual = 0, Final residual = 0, No Iterations 0
bubbles sizeGroup phase fraction first, last = 0.0290572 2.78986e-41
Scaling sizeGroups for velocityGroup air1
air1 sizeGroups-sum volume fraction, min, max = 1 1 1
air1 Sauter mean diameter, min, max = 2.16671 2.16671 2.16671
Scaling sizeGroups for velocityGroup air2
air2 sizeGroups-sum volume fraction, min, max = 1 1 1
air2 Sauter mean diameter, min, max = 4.25739 4.25739 4.25739
Scaling sizeGroups for velocityGroup air3
air3 sizeGroups-sum volume fraction, min, max = 1 1 1
air3 Sauter mean diameter, min, max = 7.31162 7.31162 7.31162
Constructing momentum equations
diagonal:  Solving for p_rgh, Initial residual = 0, Final residual = 0, No Iterations 0
Time = 1.1s

ExecutionTime = 0.888594 s  ClockTime = 1 s

Courant Number mean: 0 max: 0
MULES: Solving for alpha.air1
MULES: Solving for alpha.air2
MULES: Solving for alpha.air3
MULES: Solving for alpha.water
air1 fraction, min, max = 0.25228 0.25228 0.25228
air2 fraction, min, max = 0.747515 0.747515 0.747515
air3 fraction, min, max = 0.000389304 0.000389304 0.000389304
water fraction, min, max = 0 0 0
Phase-sum volume fraction, min, max = 1.00018 1.00018 1.00018
populationBalance bubbles: Iteration 1
diagonal:  Solving for f0.air1, Initial residual = 0, Final residual = 0, No Iterations 0
diagonal:  Solving for f1.air1, Initial residual = 0, Final residual = 0, No Iterations 0
diagonal:  Solving for f2.air1, Initial residual = 0, Final residual = 0, No Iterations 0
diagonal:  Solving for f3.air1, Initial residual = 0, Final residual = 0, No Iterations 0
diagonal:  Solving for f4.air1, Initial residual = 0, Final residual = 0, No Iterations 0
diagonal:  Solving for f5.air1, Initial residual = 0, Final residual = 0, No Iterations 0
diagonal:  Solving for f6.air1, Initial residual = 0, Final residual = 0, No Iterations 0
diagonal:  Solving for f7.air1, Initial residual = 0, Final residual = 0, No Iterations 0
diagonal:  Solving for f8.air1, Initial residual = 0, Final residual = 0, No Iterations 0
diagonal:  Solving for f9.air1, Initial residual = 0, Final residual = 0, No Iterations 0
diagonal:  Solving for f10.air1, Initial residual = 0, Final residual = 0, No Iterations 0
diagonal:  Solving for f11.air1, Initial residual = 0, Final residual = 0, No Iterations 0
diagonal:  Solving for f12.air1, Initial residual = 0, Final residual = 0, No Iterations 0
diagonal:  Solving for f13.air2, Initial residual = 0, Final residual = 0, No Iterations 0
diagonal:  Solving for f14.air2, Initial residual = 0, Final residual = 0, No Iterations 0
diagonal:  Solving for f15.air2, Initial residual = 0, Final residual = 0, No Iterations 0
diagonal:  Solving for f16.air2, Initial residual = 0, Final residual = 0, No Iterations 0
diagonal:  Solving for f17.air2, Initial residual = 0, Final residual = 0, No Iterations 0
diagonal:  Solving for f18.air2, Initial residual = 0, Final residual = 0, No Iterations 0
diagonal:  Solving for f19.air2, Initial residual = 0, Final residual = 0, No Iterations 0
diagonal:  Solving for f20.air2, Initial residual = 0, Final residual = 0, No Iterations 0
diagonal:  Solving for f21.air2, Initial residual = 0, Final residual = 0, No Iterations 0
diagonal:  Solving for f22.air2, Initial residual = 0, Final residual = 0, No Iterations 0
diagonal:  Solving for f23.air3, Initial residual = 0, Final residual = 0, No Iterations 0
diagonal:  Solving for f24.air3, Initial residual = 0, Final residual = 0, No Iterations 0
diagonal:  Solving for f25.air3, Initial residual = 0, Final residual = 0, No Iterations 0
diagonal:  Solving for f26.air3, Initial residual = 0, Final residual = 0, No Iterations 0
diagonal:  Solving for f27.air3, Initial residual = 0, Final residual = 0, No Iterations 0
diagonal:  Solving for f28.air3, Initial residual = 0, Final residual = 0, No Iterations 0
diagonal:  Solving for f29.air3, Initial residual = 0, Final residual = 0, No Iterations 0
diagonal:  Solving for f30.air3, Initial residual = 0, Final residual = 0, No Iterations 0
bubbles sizeGroup phase fraction first, last = 0.0226454 4.64876e-24
Scaling sizeGroups for velocityGroup air1
air1 sizeGroups-sum volume fraction, min, max = 1 1 1
air1 Sauter mean diameter, min, max = 2.14534 2.14534 2.14534
Scaling sizeGroups for velocityGroup air2
air2 sizeGroups-sum volume fraction, min, max = 1 1 1
air2 Sauter mean diameter, min, max = 4.49388 4.49388 4.49388
Scaling sizeGroups for velocityGroup air3
air3 sizeGroups-sum volume fraction, min, max = 1 1 1
air3 Sauter mean diameter, min, max = 7.37138 7.37138 7.37138
Constructing momentum equations
diagonal:  Solving for p_rgh, Initial residual = 0, Final residual = 0, No Iterations 0
Time = 1.2s

ExecutionTime = 0.954057 s  ClockTime = 1 s

Courant Number mean: 0 max: 0
MULES: Solving for alpha.air1
MULES: Solving for alpha.air2
MULES: Solving for alpha.air3
MULES: Solving for alpha.water
air1 fraction, min, max = 0.184854 0.184854 0.184854
air2 fraction, min, max = 0.810236 0.810236 0.810236
air3 fraction, min, max = 0.00858105 0.00858105 0.00858105
water fraction, min, max = 0 0 0
Phase-sum volume fraction, min, max = 1.00367 1.00367 1.00367
populationBalance bubbles: Iteration 1
diagonal:  Solving for f0.air1, Initial residual = 0, Final residual = 0, No Iterations 0
diagonal:  Solving for f1.air1, Initial residual = 0, Final residual = 0, No Iterations 0
diagonal:  Solving for f2.air1, Initial residual = 0, Final residual = 0, No Iterations 0
diagonal:  Solving for f3.air1, Initial residual = 0, Final residual = 0, No Iterations 0
diagonal:  Solving for f4.air1, Initial residual = 0, Final residual = 0, No Iterations 0
diagonal:  Solving for f5.air1, Initial residual = 0, Final residual = 0, No Iterations 0
diagonal:  Solving for f6.air1, Initial residual = 0, Final residual = 0, No Iterations 0
diagonal:  Solving for f7.air1, Initial residual = 0, Final residual = 0, No Iterations 0
diagonal:  Solving for f8.air1, Initial residual = 0, Final residual = 0, No Iterations 0
diagonal:  Solving for f9.air1, Initial residual = 0, Final residual = 0, No Iterations 0
diagonal:  Solving for f10.air1, Initial residual = 0, Final residual = 0, No Iterations 0
diagonal:  Solving for f11.air1, Initial residual = 0, Final residual = 0, No Iterations 0
diagonal:  Solving for f12.air1, Initial residual = 0, Final residual = 0, No Iterations 0
diagonal:  Solving for f13.air2, Initial residual = 0, Final residual = 0, No Iterations 0
diagonal:  Solving for f14.air2, Initial residual = 0, Final residual = 0, No Iterations 0
diagonal:  Solving for f15.air2, Initial residual = 0, Final residual = 0, No Iterations 0
diagonal:  Solving for f16.air2, Initial residual = 0, Final residual = 0, No Iterations 0
diagonal:  Solving for f17.air2, Initial residual = 0, Final residual = 0, No Iterations 0
diagonal:  Solving for f18.air2, Initial residual = 0, Final residual = 0, No Iterations 0
diagonal:  Solving for f19.air2, Initial residual = 0, Final residual = 0, No Iterations 0
diagonal:  Solving for f20.air2, Initial residual = 0, Final residual = 0, No Iterations 0
diagonal:  Solving for f21.air2, Initial residual = 0, Final residual = 0, No Iterations 0
diagonal:  Solving for f22.air2, Initial residual = 0, Final residual = 0, No Iterations 0
diagonal:  Solving for f23.air3, Initial residual = 0, Final residual = 0, No Iterations 0
diagonal:  Solving for f24.air3, Initial residual = 0, Final residual = 0, No Iterations 0
diagonal:  Solving for f25.air3, Initial residual = 0, Final residual = 0, No Iterations 0
diagonal:  Solving for f26.air3, Initial residual = 0, Final residual = 0, No Iterations 0
diagonal:  Solving for f27.air3, Initial residual = 0, Final residual = 0, No Iterations 0
diagonal:  Solving for f28.air3, Initial residual = 0, Final residual = 0, No Iterations 0
diagonal:  Solving for f29.air3, Initial residual = 0, Final residual = 0, No Iterations 0
diagonal:  Solving for f30.air3, Initial residual = 0, Final residual = 0, No Iterations 0
bubbles sizeGroup phase fraction first, last = 0.017746 5.54505e-16
Scaling sizeGroups for velocityGroup air1
air1 sizeGroups-sum volume fraction, min, max = 1 1 1
air1 Sauter mean diameter, min, max = 2.12234 2.12234 2.12234
Scaling sizeGroups for velocityGroup air2
air2 sizeGroups-sum volume fraction, min, max = 1 1 1
air2 Sauter mean diameter, min, max = 4.72615 4.72615 4.72615
Scaling sizeGroups for velocityGroup air3
air3 sizeGroups-sum volume fraction, min, max = 1 1 1
air3 Sauter mean diameter, min, max = 7.48866 7.48866 7.48866
Constructing momentum equations
diagonal:  Solving for p_rgh, Initial residual = 0, Final residual = 0, No Iterations 0
Time = 1.3s

ExecutionTime = 1.08302 s  ClockTime = 1 s

Courant Number mean: 0 max: 0
MULES: Solving for alpha.air1
MULES: Solving for alpha.air2
MULES: Solving for alpha.air3
MULES: Solving for alpha.water
air1 fraction, min, max = 0.13722 0.13722 0.13722
air2 fraction, min, max = 0.819514 0.819514 0.819514
air3 fraction, min, max = 0.0561085 0.0561085 0.0561085
water fraction, min, max = 0 0 0
Phase-sum volume fraction, min, max = 1.01284 1.01284 1.01284
populationBalance bubbles: Iteration 1
diagonal:  Solving for f0.air1, Initial residual = 0, Final residual = 0, No Iterations 0
diagonal:  Solving for f1.air1, Initial residual = 0, Final residual = 0, No Iterations 0
diagonal:  Solving for f2.air1, Initial residual = 0, Final residual = 0, No Iterations 0
diagonal:  Solving for f3.air1, Initial residual = 0, Final residual = 0, No Iterations 0
diagonal:  Solving for f4.air1, Initial residual = 0, Final residual = 0, No Iterations 0
diagonal:  Solving for f5.air1, Initial residual = 0, Final residual = 0, No Iterations 0
diagonal:  Solving for f6.air1, Initial residual = 0, Final residual = 0, No Iterations 0
diagonal:  Solving for f7.air1, Initial residual = 0, Final residual = 0, No Iterations 0
diagonal:  Solving for f8.air1, Initial residual = 0, Final residual = 0, No Iterations 0
diagonal:  Solving for f9.air1, Initial residual = 0, Final residual = 0, No Iterations 0
diagonal:  Solving for f10.air1, Initial residual = 0, Final residual = 0, No Iterations 0
diagonal:  Solving for f11.air1, Initial residual = 0, Final residual = 0, No Iterations 0
diagonal:  Solving for f12.air1, Initial residual = 0, Final residual = 0, No Iterations 0
diagonal:  Solving for f13.air2, Initial residual = 0, Final residual = 0, No Iterations 0
diagonal:  Solving for f14.air2, Initial residual = 0, Final residual = 0, No Iterations 0
diagonal:  Solving for f15.air2, Initial residual = 0, Final residual = 0, No Iterations 0
diagonal:  Solving for f16.air2, Initial residual = 0, Final residual = 0, No Iterations 0
diagonal:  Solving for f17.air2, Initial residual = 0, Final residual = 0, No Iterations 0
diagonal:  Solving for f18.air2, Initial residual = 0, Final residual = 0, No Iterations 0
diagonal:  Solving for f19.air2, Initial residual = 0, Final residual = 0, No Iterations 0
diagonal:  Solving for f20.air2, Initial residual = 0, Final residual = 0, No Iterations 0
diagonal:  Solving for f21.air2, Initial residual = 0, Final residual = 0, No Iterations 0
diagonal:  Solving for f22.air2, Initial residual = 0, Final residual = 0, No Iterations 0
diagonal:  Solving for f23.air3, Initial residual = 0, Final residual = 0, No Iterations 0
diagonal:  Solving for f24.air3, Initial residual = 0, Final residual = 0, No Iterations 0
diagonal:  Solving for f25.air3, Initial residual = 0, Final residual = 0, No Iterations 0
diagonal:  Solving for f26.air3, Initial residual = 0, Final residual = 0, No Iterations 0
diagonal:  Solving for f27.air3, Initial residual = 0, Final residual = 0, No Iterations 0
diagonal:  Solving for f28.air3, Initial residual = 0, Final residual = 0, No Iterations 0
diagonal:  Solving for f29.air3, Initial residual = 0, Final residual = 0, No Iterations 0
diagonal:  Solving for f30.air3, Initial residual = 0, Final residual = 0, No Iterations 0
bubbles sizeGroup phase fraction first, last = 0.0139154 3.16775e-11
Scaling sizeGroups for velocityGroup air1
air1 sizeGroups-sum volume fraction, min, max = 1 1 1
air1 Sauter mean diameter, min, max = 2.09993 2.09993 2.09993
Scaling sizeGroups for velocityGroup air2
air2 sizeGroups-sum volume fraction, min, max = 1 1 1
air2 Sauter mean diameter, min, max = 4.91449 4.91449 4.91449
Scaling sizeGroups for velocityGroup air3
air3 sizeGroups-sum volume fraction, min, max = 1 1 1
air3 Sauter mean diameter, min, max = 7.6597 7.6597 7.6597
Constructing momentum equations
diagonal:  Solving for p_rgh, Initial residual = 0, Final residual = 0, No Iterations 0
Time = 1.4s

ExecutionTime = 1.19291 s  ClockTime = 1 s

Courant Number mean: 0 max: 0
MULES: Solving for alpha.air1
MULES: Solving for alpha.air2
MULES: Solving for alpha.air3
MULES: Solving for alpha.water
air1 fraction, min, max = 0.102921 0.102921 0.102921
air2 fraction, min, max = 0.726285 0.726285 0.726285
air3 fraction, min, max = 0.173627 0.173627 0.173627
water fraction, min, max = 0 0 0
Phase-sum volume fraction, min, max = 1.00283 1.00283 1.00283
populationBalance bubbles: Iteration 1
diagonal:  Solving for f0.air1, Initial residual = 0, Final residual = 0, No Iterations 0
diagonal:  Solving for f1.air1, Initial residual = 0, Final residual = 0, No Iterations 0
diagonal:  Solving for f2.air1, Initial residual = 0, Final residual = 0, No Iterations 0
diagonal:  Solving for f3.air1, Initial residual = 0, Final residual = 0, No Iterations 0
diagonal:  Solving for f4.air1, Initial residual = 0, Final residual = 0, No Iterations 0
diagonal:  Solving for f5.air1, Initial residual = 0, Final residual = 0, No Iterations 0
diagonal:  Solving for f6.air1, Initial residual = 0, Final residual = 0, No Iterations 0
diagonal:  Solving for f7.air1, Initial residual = 0, Final residual = 0, No Iterations 0
diagonal:  Solving for f8.air1, Initial residual = 0, Final residual = 0, No Iterations 0
diagonal:  Solving for f9.air1, Initial residual = 0, Final residual = 0, No Iterations 0
diagonal:  Solving for f10.air1, Initial residual = 0, Final residual = 0, No Iterations 0
diagonal:  Solving for f11.air1, Initial residual = 0, Final residual = 0, No Iterations 0
diagonal:  Solving for f12.air1, Initial residual = 0, Final residual = 0, No Iterations 0
diagonal:  Solving for f13.air2, Initial residual = 0, Final residual = 0, No Iterations 0
diagonal:  Solving for f14.air2, Initial residual = 0, Final residual = 0, No Iterations 0
diagonal:  Solving for f15.air2, Initial residual = 0, Final residual = 0, No Iterations 0
diagonal:  Solving for f16.air2, Initial residual = 0, Final residual = 0, No Iterations 0
diagonal:  Solving for f17.air2, Initial residual = 0, Final residual = 0, No Iterations 0
diagonal:  Solving for f18.air2, Initial residual = 0, Final residual = 0, No Iterations 0
diagonal:  Solving for f19.air2, Initial residual = 0, Final residual = 0, No Iterations 0
diagonal:  Solving for f20.air2, Initial residual = 0, Final residual = 0, No Iterations 0
diagonal:  Solving for f21.air2, Initial residual = 0, Final residual = 0, No Iterations 0
diagonal:  Solving for f22.air2, Initial residual = 0, Final residual = 0, No Iterations 0
diagonal:  Solving for f23.air3, Initial residual = 0, Final residual = 0, No Iterations 0
diagonal:  Solving for f24.air3, Initial residual = 0, Final residual = 0, No Iterations 0
diagonal:  Solving for f25.air3, Initial residual = 0, Final residual = 0, No Iterations 0
diagonal:  Solving for f26.air3, Initial residual = 0, Final residual = 0, No Iterations 0
diagonal:  Solving for f27.air3, Initial residual = 0, Final residual = 0, No Iterations 0
diagonal:  Solving for f28.air3, Initial residual = 0, Final residual = 0, No Iterations 0
diagonal:  Solving for f29.air3, Initial residual = 0, Final residual = 0, No Iterations 0
diagonal:  Solving for f30.air3, Initial residual = 0, Final residual = 0, No Iterations 0
bubbles sizeGroup phase fraction first, last = 0.0111525 2.71013e-08
Scaling sizeGroups for velocityGroup air1
air1 sizeGroups-sum volume fraction, min, max = 1 1 1
air1 Sauter mean diameter, min, max = 2.07919 2.07919 2.07919
Scaling sizeGroups for velocityGroup air2
air2 sizeGroups-sum volume fraction, min, max = 1 1 1
air2 Sauter mean diameter, min, max = 5.03425 5.03425 5.03425
Scaling sizeGroups for velocityGroup air3
air3 sizeGroups-sum volume fraction, min, max = 1 1 1
air3 Sauter mean diameter, min, max = 7.87203 7.87203 7.87203
Constructing momentum equations
diagonal:  Solving for p_rgh, Initial residual = 0, Final residual = 0, No Iterations 0
Time = 1.5s

ExecutionTime = 1.34989 s  ClockTime = 1 s

Courant Number mean: 0 max: 0
MULES: Solving for alpha.air1
MULES: Solving for alpha.air2
MULES: Solving for alpha.air3
MULES: Solving for alpha.water
air1 fraction, min, max = 0.0796388 0.0796388 0.0796388
air2 fraction, min, max = 0.585119 0.585119 0.585119
air3 fraction, min, max = 0.335359 0.335359 0.335359
water fraction, min, max = 0 0 0
Phase-sum volume fraction, min, max = 1.00012 1.00012 1.00012
populationBalance bubbles: Iteration 1
diagonal:  Solving for f0.air1, Initial residual = 0, Final residual = 0, No Iterations 0
diagonal:  Solving for f1.air1, Initial residual = 0, Final residual = 0, No Iterations 0
diagonal:  Solving for f2.air1, Initial residual = 0, Final residual = 0, No Iterations 0
diagonal:  Solving for f3.air1, Initial residual = 0, Final residual = 0, No Iterations 0
diagonal:  Solving for f4.air1, Initial residual = 0, Final residual = 0, No Iterations 0
diagonal:  Solving for f5.air1, Initial residual = 0, Final residual = 0, No Iterations 0
diagonal:  Solving for f6.air1, Initial residual = 0, Final residual = 0, No Iterations 0
diagonal:  Solving for f7.air1, Initial residual = 0, Final residual = 0, No Iterations 0
diagonal:  Solving for f8.air1, Initial residual = 0, Final residual = 0, No Iterations 0
diagonal:  Solving for f9.air1, Initial residual = 0, Final residual = 0, No Iterations 0
diagonal:  Solving for f10.air1, Initial residual = 0, Final residual = 0, No Iterations 0
diagonal:  Solving for f11.air1, Initial residual = 0, Final residual = 0, No Iterations 0
diagonal:  Solving for f12.air1, Initial residual = 0, Final residual = 0, No Iterations 0
diagonal:  Solving for f13.air2, Initial residual = 0, Final residual = 0, No Iterations 0
diagonal:  Solving for f14.air2, Initial residual = 0, Final residual = 0, No Iterations 0
diagonal:  Solving for f15.air2, Initial residual = 0, Final residual = 0, No Iterations 0
diagonal:  Solving for f16.air2, Initial residual = 0, Final residual = 0, No Iterations 0
diagonal:  Solving for f17.air2, Initial residual = 0, Final residual = 0, No Iterations 0
diagonal:  Solving for f18.air2, Initial residual = 0, Final residual = 0, No Iterations 0
diagonal:  Solving for f19.air2, Initial residual = 0, Final residual = 0, No Iterations 0
diagonal:  Solving for f20.air2, Initial residual = 0, Final residual = 0, No Iterations 0
diagonal:  Solving for f21.air2, Initial residual = 0, Final residual = 0, No Iterations 0
diagonal:  Solving for f22.air2, Initial residual = 0, Final residual = 0, No Iterations 0
diagonal:  Solving for f23.air3, Initial residual = 0, Final residual = 0, No Iterations 0
diagonal:  Solving for f24.air3, Initial residual = 0, Final residual = 0, No Iterations 0
diagonal:  Solving for f25.air3, Initial residual = 0, Final residual = 0, No Iterations 0
diagonal:  Solving for f26.air3, Initial residual = 0, Final residual = 0, No Iterations 0
diagonal:  Solving for f27.air3, Initial residual = 0, Final residual = 0, No Iterations 0
diagonal:  Solving for f28.air3, Initial residual = 0, Final residual = 0, No Iterations 0
diagonal:  Solving for f29.air3, Initial residual = 0, Final residual = 0, No Iterations 0
diagonal:  Solving for f30.air3, Initial residual = 0, Final residual = 0, No Iterations 0
bubbles sizeGroup phase fraction first, last = 0.00907705 1.65039e-06
Scaling sizeGroups for velocityGroup air1
air1 sizeGroups-sum volume fraction, min, max = 1 1 1
air1 Sauter mean diameter, min, max = 2.06097 2.06097 2.06097
Scaling sizeGroups for velocityGroup air2
air2 sizeGroups-sum volume fraction, min, max = 1 1 1
air2 Sauter mean diameter, min, max = 5.10149 5.10149 5.10149
Scaling sizeGroups for velocityGroup air3
air3 sizeGroups-sum volume fraction, min, max = 1 1 1
air3 Sauter mean diameter, min, max = 8.09289 8.09289 8.09289
Constructing momentum equations
diagonal:  Solving for p_rgh, Initial residual = 0, Final residual = 0, No Iterations 0
Time = 1.6s

ExecutionTime = 1.49099 s  ClockTime = 1 s

Courant Number mean: 0 max: 0
MULES: Solving for alpha.air1
MULES: Solving for alpha.air2
MULES: Solving for alpha.air3
MULES: Solving for alpha.water
air1 fraction, min, max = 0.0630789 0.0630789 0.0630789
air2 fraction, min, max = 0.449338 0.449338 0.449338
air3 fraction, min, max = 0.487634 0.487634 0.487634
water fraction, min, max = 0 0 0
Phase-sum volume fraction, min, max = 1.00005 1.00005 1.00005
populationBalance bubbles: Iteration 1
diagonal:  Solving for f0.air1, Initial residual = 0, Final residual = 0, No Iterations 0
diagonal:  Solving for f1.air1, Initial residual = 0, Final residual = 0, No Iterations 0
diagonal:  Solving for f2.air1, Initial residual = 0, Final residual = 0, No Iterations 0
diagonal:  Solving for f3.air1, Initial residual = 0, Final residual = 0, No Iterations 0
diagonal:  Solving for f4.air1, Initial residual = 0, Final residual = 0, No Iterations 0
diagonal:  Solving for f5.air1, Initial residual = 0, Final residual = 0, No Iterations 0
diagonal:  Solving for f6.air1, Initial residual = 0, Final residual = 0, No Iterations 0
diagonal:  Solving for f7.air1, Initial residual = 0, Final residual = 0, No Iterations 0
diagonal:  Solving for f8.air1, Initial residual = 0, Final residual = 0, No Iterations 0
diagonal:  Solving for f9.air1, Initial residual = 0, Final residual = 0, No Iterations 0
diagonal:  Solving for f10.air1, Initial residual = 0, Final residual = 0, No Iterations 0
diagonal:  Solving for f11.air1, Initial residual = 0, Final residual = 0, No Iterations 0
diagonal:  Solving for f12.air1, Initial residual = 0, Final residual = 0, No Iterations 0
diagonal:  Solving for f13.air2, Initial residual = 0, Final residual = 0, No Iterations 0
diagonal:  Solving for f14.air2, Initial residual = 0, Final residual = 0, No Iterations 0
diagonal:  Solving for f15.air2, Initial residual = 0, Final residual = 0, No Iterations 0
diagonal:  Solving for f16.air2, Initial residual = 0, Final residual = 0, No Iterations 0
diagonal:  Solving for f17.air2, Initial residual = 0, Final residual = 0, No Iterations 0
diagonal:  Solving for f18.air2, Initial residual = 0, Final residual = 0, No Iterations 0
diagonal:  Solving for f19.air2, Initial residual = 0, Final residual = 0, No Iterations 0
diagonal:  Solving for f20.air2, Initial residual = 0, Final residual = 0, No Iterations 0
diagonal:  Solving for f21.air2, Initial residual = 0, Final residual = 0, No Iterations 0
diagonal:  Solving for f22.air2, Initial residual = 0, Final residual = 0, No Iterations 0
diagonal:  Solving for f23.air3, Initial residual = 0, Final residual = 0, No Iterations 0
diagonal:  Solving for f24.air3, Initial residual = 0, Final residual = 0, No Iterations 0
diagonal:  Solving for f25.air3, Initial residual = 0, Final residual = 0, No Iterations 0
diagonal:  Solving for f26.air3, Initial residual = 0, Final residual = 0, No Iterations 0
diagonal:  Solving for f27.air3, Initial residual = 0, Final residual = 0, No Iterations 0
diagonal:  Solving for f28.air3, Initial residual = 0, Final residual = 0, No Iterations 0
diagonal:  Solving for f29.air3, Initial residual = 0, Final residual = 0, No Iterations 0
diagonal:  Solving for f30.air3, Initial residual = 0, Final residual = 0, No Iterations 0
bubbles sizeGroup phase fraction first, last = 0.00748 1.83654e-05
Scaling sizeGroups for velocityGroup air1
air1 sizeGroups-sum volume fraction, min, max = 1 1 1
air1 Sauter mean diameter, min, max = 2.04563 2.04563 2.04563
Scaling sizeGroups for velocityGroup air2
air2 sizeGroups-sum volume fraction, min, max = 1 1 1
air2 Sauter mean diameter, min, max = 5.1467 5.1467 5.1467
Scaling sizeGroups for velocityGroup air3
air3 sizeGroups-sum volume fraction, min, max = 1 1 1
air3 Sauter mean diameter, min, max = 8.28702 8.28702 8.28702
Constructing momentum equations
diagonal:  Solving for p_rgh, Initial residual = 0, Final residual = 0, No Iterations 0
Time = 1.7s

ExecutionTime = 1.61765 s  ClockTime = 1 s

Courant Number mean: 0 max: 0
MULES: Solving for alpha.air1
MULES: Solving for alpha.air2
MULES: Solving for alpha.air3
MULES: Solving for alpha.water
air1 fraction, min, max = 0.0508944 0.0508944 0.0508944
air2 fraction, min, max = 0.346353 0.346353 0.346353
air3 fraction, min, max = 0.602842 0.602842 0.602842
water fraction, min, max = 0 0 0
Phase-sum volume fraction, min, max = 1.00009 1.00009 1.00009
populationBalance bubbles: Iteration 1
diagonal:  Solving for f0.air1, Initial residual = 0, Final residual = 0, No Iterations 0
diagonal:  Solving for f1.air1, Initial residual = 0, Final residual = 0, No Iterations 0
diagonal:  Solving for f2.air1, Initial residual = 0, Final residual = 0, No Iterations 0
diagonal:  Solving for f3.air1, Initial residual = 0, Final residual = 0, No Iterations 0
diagonal:  Solving for f4.air1, Initial residual = 0, Final residual = 0, No Iterations 0
diagonal:  Solving for f5.air1, Initial residual = 0, Final residual = 0, No Iterations 0
diagonal:  Solving for f6.air1, Initial residual = 0, Final residual = 0, No Iterations 0
diagonal:  Solving for f7.air1, Initial residual = 0, Final residual = 0, No Iterations 0
diagonal:  Solving for f8.air1, Initial residual = 0, Final residual = 0, No Iterations 0
diagonal:  Solving for f9.air1, Initial residual = 0, Final residual = 0, No Iterations 0
diagonal:  Solving for f10.air1, Initial residual = 0, Final residual = 0, No Iterations 0
diagonal:  Solving for f11.air1, Initial residual = 0, Final residual = 0, No Iterations 0
diagonal:  Solving for f12.air1, Initial residual = 0, Final residual = 0, No Iterations 0
diagonal:  Solving for f13.air2, Initial residual = 0, Final residual = 0, No Iterations 0
diagonal:  Solving for f14.air2, Initial residual = 0, Final residual = 0, No Iterations 0
diagonal:  Solving for f15.air2, Initial residual = 0, Final residual = 0, No Iterations 0
diagonal:  Solving for f16.air2, Initial residual = 0, Final residual = 0, No Iterations 0
diagonal:  Solving for f17.air2, Initial residual = 0, Final residual = 0, No Iterations 0
diagonal:  Solving for f18.air2, Initial residual = 0, Final residual = 0, No Iterations 0
diagonal:  Solving for f19.air2, Initial residual = 0, Final residual = 0, No Iterations 0
diagonal:  Solving for f20.air2, Initial residual = 0, Final residual = 0, No Iterations 0
diagonal:  Solving for f21.air2, Initial residual = 0, Final residual = 0, No Iterations 0
diagonal:  Solving for f22.air2, Initial residual = 0, Final residual = 0, No Iterations 0
diagonal:  Solving for f23.air3, Initial residual = 0, Final residual = 0, No Iterations 0
diagonal:  Solving for f24.air3, Initial residual = 0, Final residual = 0, No Iterations 0
diagonal:  Solving for f25.air3, Initial residual = 0, Final residual = 0, No Iterations 0
diagonal:  Solving for f26.air3, Initial residual = 0, Final residual = 0, No Iterations 0
diagonal:  Solving for f27.air3, Initial residual = 0, Final residual = 0, No Iterations 0
diagonal:  Solving for f28.air3, Initial residual = 0, Final residual = 0, No Iterations 0
diagonal:  Solving for f29.air3, Initial residual = 0, Final residual = 0, No Iterations 0
diagonal:  Solving for f30.air3, Initial residual = 0, Final residual = 0, No Iterations 0
bubbles sizeGroup phase fraction first, last = 0.00622735 7.35502e-05
Scaling sizeGroups for velocityGroup air1
air1 sizeGroups-sum volume fraction, min, max = 1 1 1
air1 Sauter mean diameter, min, max = 2.03347 2.03347 2.03347
Scaling sizeGroups for velocityGroup air2
air2 sizeGroups-sum volume fraction, min, max = 1 1 1
air2 Sauter mean diameter, min, max = 5.19578 5.19578 5.19578
Scaling sizeGroups for velocityGroup air3
air3 sizeGroups-sum volume fraction, min, max = 1 1 1
air3 Sauter mean diameter, min, max = 8.43631 8.43631 8.43631
Constructing momentum equations
diagonal:  Solving for p_rgh, Initial residual = 0, Final residual = 0, No Iterations 0
Time = 1.8s

ExecutionTime = 1.74669 s  ClockTime = 2 s

Courant Number mean: 0 max: 0
MULES: Solving for alpha.air1
MULES: Solving for alpha.air2
MULES: Solving for alpha.air3
MULES: Solving for alpha.water
air1 fraction, min, max = 0.0417272 0.0417272 0.0417272
air2 fraction, min, max = 0.280136 0.280136 0.280136
air3 fraction, min, max = 0.678143 0.678143 0.678143
water fraction, min, max = 0 0 0
Phase-sum volume fraction, min, max = 1.00001 1.00001 1.00001
populationBalance bubbles: Iteration 1
diagonal:  Solving for f0.air1, Initial residual = 0, Final residual = 0, No Iterations 0
diagonal:  Solving for f1.air1, Initial residual = 0, Final residual = 0, No Iterations 0
diagonal:  Solving for f2.air1, Initial residual = 0, Final residual = 0, No Iterations 0
diagonal:  Solving for f3.air1, Initial residual = 0, Final residual = 0, No Iterations 0
diagonal:  Solving for f4.air1, Initial residual = 0, Final residual = 0, No Iterations 0
diagonal:  Solving for f5.air1, Initial residual = 0, Final residual = 0, No Iterations 0
diagonal:  Solving for f6.air1, Initial residual = 0, Final residual = 0, No Iterations 0
diagonal:  Solving for f7.air1, Initial residual = 0, Final residual = 0, No Iterations 0
diagonal:  Solving for f8.air1, Initial residual = 0, Final residual = 0, No Iterations 0
diagonal:  Solving for f9.air1, Initial residual = 0, Final residual = 0, No Iterations 0
diagonal:  Solving for f10.air1, Initial residual = 0, Final residual = 0, No Iterations 0
diagonal:  Solving for f11.air1, Initial residual = 0, Final residual = 0, No Iterations 0
diagonal:  Solving for f12.air1, Initial residual = 0, Final residual = 0, No Iterations 0
diagonal:  Solving for f13.air2, Initial residual = 0, Final residual = 0, No Iterations 0
diagonal:  Solving for f14.air2, Initial residual = 0, Final residual = 0, No Iterations 0
diagonal:  Solving for f15.air2, Initial residual = 0, Final residual = 0, No Iterations 0
diagonal:  Solving for f16.air2, Initial residual = 0, Final residual = 0, No Iterations 0
diagonal:  Solving for f17.air2, Initial residual = 0, Final residual = 0, No Iterations 0
diagonal:  Solving for f18.air2, Initial residual = 0, Final residual = 0, No Iterations 0
diagonal:  Solving for f19.air2, Initial residual = 0, Final residual = 0, No Iterations 0
diagonal:  Solving for f20.air2, Initial residual = 0, Final residual = 0, No Iterations 0
diagonal:  Solving for f21.air2, Initial residual = 0, Final residual = 0, No Iterations 0
diagonal:  Solving for f22.air2, Initial residual = 0, Final residual = 0, No Iterations 0
diagonal:  Solving for f23.air3, Initial residual = 0, Final residual = 0, No Iterations 0
diagonal:  Solving for f24.air3, Initial residual = 0, Final residual = 0, No Iterations 0
diagonal:  Solving for f25.air3, Initial residual = 0, Final residual = 0, No Iterations 0
diagonal:  Solving for f26.air3, Initial residual = 0, Final residual = 0, No Iterations 0
diagonal:  Solving for f27.air3, Initial residual = 0, Final residual = 0, No Iterations 0
diagonal:  Solving for f28.air3, Initial residual = 0, Final residual = 0, No Iterations 0
diagonal:  Solving for f29.air3, Initial residual = 0, Final residual = 0, No Iterations 0
diagonal:  Solving for f30.air3, Initial residual = 0, Final residual = 0, No Iterations 0
bubbles sizeGroup phase fraction first, last = 0.00522653 0.000163111
Scaling sizeGroups for velocityGroup air1
air1 sizeGroups-sum volume fraction, min, max = 1 1 1
air1 Sauter mean diameter, min, max = 2.02482 2.02482 2.02482
Scaling sizeGroups for velocityGroup air2
air2 sizeGroups-sum volume fraction, min, max = 1 1 1
air2 Sauter mean diameter, min, max = 5.26307 5.26307 5.26307
Scaling sizeGroups for velocityGroup air3
air3 sizeGroups-sum volume fraction, min, max = 1 1 1
air3 Sauter mean diameter, min, max = 8.54001 8.54001 8.54001
Constructing momentum equations
diagonal:  Solving for p_rgh, Initial residual = 0, Final residual = 0, No Iterations 0
Time = 1.9s

ExecutionTime = 1.87464 s  ClockTime = 2 s

Courant Number mean: 0 max: 0
MULES: Solving for alpha.air1
MULES: Solving for alpha.air2
MULES: Solving for alpha.air3
MULES: Solving for alpha.water
air1 fraction, min, max = 0.0346961 0.0346961 0.0346961
air2 fraction, min, max = 0.244889 0.244889 0.244889
air3 fraction, min, max = 0.720494 0.720494 0.720494
water fraction, min, max = 0 0 0
Phase-sum volume fraction, min, max = 1.00008 1.00008 1.00008
populationBalance bubbles: Iteration 1
diagonal:  Solving for f0.air1, Initial residual = 0, Final residual = 0, No Iterations 0
diagonal:  Solving for f1.air1, Initial residual = 0, Final residual = 0, No Iterations 0
diagonal:  Solving for f2.air1, Initial residual = 0, Final residual = 0, No Iterations 0
diagonal:  Solving for f3.air1, Initial residual = 0, Final residual = 0, No Iterations 0
diagonal:  Solving for f4.air1, Initial residual = 0, Final residual = 0, No Iterations 0
diagonal:  Solving for f5.air1, Initial residual = 0, Final residual = 0, No Iterations 0
diagonal:  Solving for f6.air1, Initial residual = 0, Final residual = 0, No Iterations 0
diagonal:  Solving for f7.air1, Initial residual = 0, Final residual = 0, No Iterations 0
diagonal:  Solving for f8.air1, Initial residual = 0, Final residual = 0, No Iterations 0
diagonal:  Solving for f9.air1, Initial residual = 0, Final residual = 0, No Iterations 0
diagonal:  Solving for f10.air1, Initial residual = 0, Final residual = 0, No Iterations 0
[...]
Constructing momentum equations
diagonal:  Solving for p_rgh, Initial residual = 0, Final residual = 0, No Iterations 0
Time = 9.5s

ExecutionTime = 6.15673 s  ClockTime = 6 s

Courant Number mean: 0 max: 0
MULES: Solving for alpha.air1
MULES: Solving for alpha.air2
MULES: Solving for alpha.air3
MULES: Solving for alpha.water
air1 fraction, min, max = 0.00575021 0.00575021 0.00575021
air2 fraction, min, max = 0.22815 0.22815 0.22815
air3 fraction, min, max = 0.7661 0.7661 0.7661
water fraction, min, max = 0 0 0
Phase-sum volume fraction, min, max = 1 1 1
populationBalance bubbles: Iteration 1
diagonal:  Solving for f0.air1, Initial residual = 0, Final residual = 0, No Iterations 0
diagonal:  Solving for f1.air1, Initial residual = 0, Final residual = 0, No Iterations 0
diagonal:  Solving for f2.air1, Initial residual = 0, Final residual = 0, No Iterations 0
diagonal:  Solving for f3.air1, Initial residual = 0, Final residual = 0, No Iterations 0
diagonal:  Solving for f4.air1, Initial residual = 0, Final residual = 0, No Iterations 0
diagonal:  Solving for f5.air1, Initial residual = 0, Final residual = 0, No Iterations 0
diagonal:  Solving for f6.air1, Initial residual = 0, Final residual = 0, No Iterations 0
diagonal:  Solving for f7.air1, Initial residual = 0, Final residual = 0, No Iterations 0
diagonal:  Solving for f8.air1, Initial residual = 0, Final residual = 0, No Iterations 0
diagonal:  Solving for f9.air1, Initial residual = 0, Final residual = 0, No Iterations 0
diagonal:  Solving for f10.air1, Initial residual = 0, Final residual = 0, No Iterations 0
diagonal:  Solving for f11.air1, Initial residual = 0, Final residual = 0, No Iterations 0
diagonal:  Solving for f12.air1, Initial residual = 0, Final residual = 0, No Iterations 0
diagonal:  Solving for f13.air2, Initial residual = 0, Final residual = 0, No Iterations 0
diagonal:  Solving for f14.air2, Initial residual = 0, Final residual = 0, No Iterations 0
diagonal:  Solving for f15.air2, Initial residual = 0, Final residual = 0, No Iterations 0
diagonal:  Solving for f16.air2, Initial residual = 0, Final residual = 0, No Iterations 0
diagonal:  Solving for f17.air2, Initial residual = 0, Final residual = 0, No Iterations 0
diagonal:  Solving for f18.air2, Initial residual = 0, Final residual = 0, No Iterations 0
diagonal:  Solving for f19.air2, Initial residual = 0, Final residual = 0, No Iterations 0
diagonal:  Solving for f20.air2, Initial residual = 0, Final residual = 0, No Iterations 0
diagonal:  Solving for f21.air2, Initial residual = 0, Final residual = 0, No Iterations 0
diagonal:  Solving for f22.air2, Initial residual = 0, Final residual = 0, No Iterations 0
diagonal:  Solving for f23.air3, Initial residual = 0, Final residual = 0, No Iterations 0
diagonal:  Solving for f24.air3, Initial residual = 0, Final residual = 0, No Iterations 0
diagonal:  Solving for f25.air3, Initial residual = 0, Final residual = 0, No Iterations 0
diagonal:  Solving for f26.air3, Initial residual = 0, Final residual = 0, No Iterations 0
diagonal:  Solving for f27.air3, Initial residual = 0, Final residual = 0, No Iterations 0
diagonal:  Solving for f28.air3, Initial residual = 0, Final residual = 0, No Iterations 0
diagonal:  Solving for f29.air3, Initial residual = 0, Final residual = 0, No Iterations 0
diagonal:  Solving for f30.air3, Initial residual = 0, Final residual = 0, No Iterations 0
bubbles sizeGroup phase fraction first, last = 1.21882e-05 0.000451368
Scaling sizeGroups for velocityGroup air1
air1 sizeGroups-sum volume fraction, min, max = 1 1 1
air1 Sauter mean diameter, min, max = 2.62325 2.62325 2.62325
Scaling sizeGroups for velocityGroup air2
air2 sizeGroups-sum volume fraction, min, max = 1 1 1
air2 Sauter mean diameter, min, max = 5.69105 5.69105 5.69105
Scaling sizeGroups for velocityGroup air3
air3 sizeGroups-sum volume fraction, min, max = 1 1 1
air3 Sauter mean diameter, min, max = 8.70953 8.70953 8.70953
Constructing momentum equations
diagonal:  Solving for p_rgh, Initial residual = 0, Final residual = 0, No Iterations 0
Time = 9.6s

ExecutionTime = 6.22252 s  ClockTime = 6 s

Courant Number mean: 0 max: 0
MULES: Solving for alpha.air1
MULES: Solving for alpha.air2
MULES: Solving for alpha.air3
MULES: Solving for alpha.water
air1 fraction, min, max = 0.0057502 0.0057502 0.0057502
air2 fraction, min, max = 0.22815 0.22815 0.22815
air3 fraction, min, max = 0.7661 0.7661 0.7661
water fraction, min, max = 0 0 0
Phase-sum volume fraction, min, max = 1 1 1
populationBalance bubbles: Iteration 1
diagonal:  Solving for f0.air1, Initial residual = 0, Final residual = 0, No Iterations 0
diagonal:  Solving for f1.air1, Initial residual = 0, Final residual = 0, No Iterations 0
diagonal:  Solving for f2.air1, Initial residual = 0, Final residual = 0, No Iterations 0
diagonal:  Solving for f3.air1, Initial residual = 0, Final residual = 0, No Iterations 0
diagonal:  Solving for f4.air1, Initial residual = 0, Final residual = 0, No Iterations 0
diagonal:  Solving for f5.air1, Initial residual = 0, Final residual = 0, No Iterations 0
diagonal:  Solving for f6.air1, Initial residual = 0, Final residual = 0, No Iterations 0
diagonal:  Solving for f7.air1, Initial residual = 0, Final residual = 0, No Iterations 0
diagonal:  Solving for f8.air1, Initial residual = 0, Final residual = 0, No Iterations 0
diagonal:  Solving for f9.air1, Initial residual = 0, Final residual = 0, No Iterations 0
diagonal:  Solving for f10.air1, Initial residual = 0, Final residual = 0, No Iterations 0
diagonal:  Solving for f11.air1, Initial residual = 0, Final residual = 0, No Iterations 0
diagonal:  Solving for f12.air1, Initial residual = 0, Final residual = 0, No Iterations 0
diagonal:  Solving for f13.air2, Initial residual = 0, Final residual = 0, No Iterations 0
diagonal:  Solving for f14.air2, Initial residual = 0, Final residual = 0, No Iterations 0
diagonal:  Solving for f15.air2, Initial residual = 0, Final residual = 0, No Iterations 0
diagonal:  Solving for f16.air2, Initial residual = 0, Final residual = 0, No Iterations 0
diagonal:  Solving for f17.air2, Initial residual = 0, Final residual = 0, No Iterations 0
diagonal:  Solving for f18.air2, Initial residual = 0, Final residual = 0, No Iterations 0
diagonal:  Solving for f19.air2, Initial residual = 0, Final residual = 0, No Iterations 0
diagonal:  Solving for f20.air2, Initial residual = 0, Final residual = 0, No Iterations 0
diagonal:  Solving for f21.air2, Initial residual = 0, Final residual = 0, No Iterations 0
diagonal:  Solving for f22.air2, Initial residual = 0, Final residual = 0, No Iterations 0
diagonal:  Solving for f23.air3, Initial residual = 0, Final residual = 0, No Iterations 0
diagonal:  Solving for f24.air3, Initial residual = 0, Final residual = 0, No Iterations 0
diagonal:  Solving for f25.air3, Initial residual = 0, Final residual = 0, No Iterations 0
diagonal:  Solving for f26.air3, Initial residual = 0, Final residual = 0, No Iterations 0
diagonal:  Solving for f27.air3, Initial residual = 0, Final residual = 0, No Iterations 0
diagonal:  Solving for f28.air3, Initial residual = 0, Final residual = 0, No Iterations 0
diagonal:  Solving for f29.air3, Initial residual = 0, Final residual = 0, No Iterations 0
diagonal:  Solving for f30.air3, Initial residual = 0, Final residual = 0, No Iterations 0
bubbles sizeGroup phase fraction first, last = 1.21796e-05 0.000451368
Scaling sizeGroups for velocityGroup air1
air1 sizeGroups-sum volume fraction, min, max = 1 1 1
air1 Sauter mean diameter, min, max = 2.62325 2.62325 2.62325
Scaling sizeGroups for velocityGroup air2
air2 sizeGroups-sum volume fraction, min, max = 1 1 1
air2 Sauter mean diameter, min, max = 5.69105 5.69105 5.69105
Scaling sizeGroups for velocityGroup air3
air3 sizeGroups-sum volume fraction, min, max = 1 1 1
air3 Sauter mean diameter, min, max = 8.70953 8.70953 8.70953
Constructing momentum equations
diagonal:  Solving for p_rgh, Initial residual = 0, Final residual = 0, No Iterations 0
Time = 9.7s

ExecutionTime = 6.29892 s  ClockTime = 6 s

Courant Number mean: 0 max: 0
MULES: Solving for alpha.air1
MULES: Solving for alpha.air2
MULES: Solving for alpha.air3
MULES: Solving for alpha.water
air1 fraction, min, max = 0.00575019 0.00575019 0.00575019
air2 fraction, min, max = 0.22815 0.22815 0.22815
air3 fraction, min, max = 0.7661 0.7661 0.7661
water fraction, min, max = 0 0 0
Phase-sum volume fraction, min, max = 1 1 1
populationBalance bubbles: Iteration 1
diagonal:  Solving for f0.air1, Initial residual = 0, Final residual = 0, No Iterations 0
diagonal:  Solving for f1.air1, Initial residual = 0, Final residual = 0, No Iterations 0
diagonal:  Solving for f2.air1, Initial residual = 0, Final residual = 0, No Iterations 0
diagonal:  Solving for f3.air1, Initial residual = 0, Final residual = 0, No Iterations 0
diagonal:  Solving for f4.air1, Initial residual = 0, Final residual = 0, No Iterations 0
diagonal:  Solving for f5.air1, Initial residual = 0, Final residual = 0, No Iterations 0
diagonal:  Solving for f6.air1, Initial residual = 0, Final residual = 0, No Iterations 0
diagonal:  Solving for f7.air1, Initial residual = 0, Final residual = 0, No Iterations 0
diagonal:  Solving for f8.air1, Initial residual = 0, Final residual = 0, No Iterations 0
diagonal:  Solving for f9.air1, Initial residual = 0, Final residual = 0, No Iterations 0
diagonal:  Solving for f10.air1, Initial residual = 0, Final residual = 0, No Iterations 0
diagonal:  Solving for f11.air1, Initial residual = 0, Final residual = 0, No Iterations 0
diagonal:  Solving for f12.air1, Initial residual = 0, Final residual = 0, No Iterations 0
diagonal:  Solving for f13.air2, Initial residual = 0, Final residual = 0, No Iterations 0
diagonal:  Solving for f14.air2, Initial residual = 0, Final residual = 0, No Iterations 0
diagonal:  Solving for f15.air2, Initial residual = 0, Final residual = 0, No Iterations 0
diagonal:  Solving for f16.air2, Initial residual = 0, Final residual = 0, No Iterations 0
diagonal:  Solving for f17.air2, Initial residual = 0, Final residual = 0, No Iterations 0
diagonal:  Solving for f18.air2, Initial residual = 0, Final residual = 0, No Iterations 0
diagonal:  Solving for f19.air2, Initial residual = 0, Final residual = 0, No Iterations 0
diagonal:  Solving for f20.air2, Initial residual = 0, Final residual = 0, No Iterations 0
diagonal:  Solving for f21.air2, Initial residual = 0, Final residual = 0, No Iterations 0
diagonal:  Solving for f22.air2, Initial residual = 0, Final residual = 0, No Iterations 0
diagonal:  Solving for f23.air3, Initial residual = 0, Final residual = 0, No Iterations 0
diagonal:  Solving for f24.air3, Initial residual = 0, Final residual = 0, No Iterations 0
diagonal:  Solving for f25.air3, Initial residual = 0, Final residual = 0, No Iterations 0
diagonal:  Solving for f26.air3, Initial residual = 0, Final residual = 0, No Iterations 0
diagonal:  Solving for f27.air3, Initial residual = 0, Final residual = 0, No Iterations 0
diagonal:  Solving for f28.air3, Initial residual = 0, Final residual = 0, No Iterations 0
diagonal:  Solving for f29.air3, Initial residual = 0, Final residual = 0, No Iterations 0
diagonal:  Solving for f30.air3, Initial residual = 0, Final residual = 0, No Iterations 0
bubbles sizeGroup phase fraction first, last = 1.21721e-05 0.000451368
Scaling sizeGroups for velocityGroup air1
air1 sizeGroups-sum volume fraction, min, max = 1 1 1
air1 Sauter mean diameter, min, max = 2.62326 2.62326 2.62326
Scaling sizeGroups for velocityGroup air2
air2 sizeGroups-sum volume fraction, min, max = 1 1 1
air2 Sauter mean diameter, min, max = 5.69105 5.69105 5.69105
Scaling sizeGroups for velocityGroup air3
air3 sizeGroups-sum volume fraction, min, max = 1 1 1
air3 Sauter mean diameter, min, max = 8.70953 8.70953 8.70953
Constructing momentum equations
diagonal:  Solving for p_rgh, Initial residual = 0, Final residual = 0, No Iterations 0
Time = 9.8s

ExecutionTime = 6.36785 s  ClockTime = 7 s

Courant Number mean: 0 max: 0
MULES: Solving for alpha.air1
MULES: Solving for alpha.air2
MULES: Solving for alpha.air3
MULES: Solving for alpha.water
air1 fraction, min, max = 0.00575018 0.00575018 0.00575018
air2 fraction, min, max = 0.22815 0.22815 0.22815
air3 fraction, min, max = 0.7661 0.7661 0.7661
water fraction, min, max = 0 0 0
Phase-sum volume fraction, min, max = 1 1 1
populationBalance bubbles: Iteration 1
diagonal:  Solving for f0.air1, Initial residual = 0, Final residual = 0, No Iterations 0
diagonal:  Solving for f1.air1, Initial residual = 0, Final residual = 0, No Iterations 0
diagonal:  Solving for f2.air1, Initial residual = 0, Final residual = 0, No Iterations 0
diagonal:  Solving for f3.air1, Initial residual = 0, Final residual = 0, No Iterations 0
diagonal:  Solving for f4.air1, Initial residual = 0, Final residual = 0, No Iterations 0
diagonal:  Solving for f5.air1, Initial residual = 0, Final residual = 0, No Iterations 0
diagonal:  Solving for f6.air1, Initial residual = 0, Final residual = 0, No Iterations 0
diagonal:  Solving for f7.air1, Initial residual = 0, Final residual = 0, No Iterations 0
diagonal:  Solving for f8.air1, Initial residual = 0, Final residual = 0, No Iterations 0
diagonal:  Solving for f9.air1, Initial residual = 0, Final residual = 0, No Iterations 0
diagonal:  Solving for f10.air1, Initial residual = 0, Final residual = 0, No Iterations 0
diagonal:  Solving for f11.air1, Initial residual = 0, Final residual = 0, No Iterations 0
diagonal:  Solving for f12.air1, Initial residual = 0, Final residual = 0, No Iterations 0
diagonal:  Solving for f13.air2, Initial residual = 0, Final residual = 0, No Iterations 0
diagonal:  Solving for f14.air2, Initial residual = 0, Final residual = 0, No Iterations 0
diagonal:  Solving for f15.air2, Initial residual = 0, Final residual = 0, No Iterations 0
diagonal:  Solving for f16.air2, Initial residual = 0, Final residual = 0, No Iterations 0
diagonal:  Solving for f17.air2, Initial residual = 0, Final residual = 0, No Iterations 0
diagonal:  Solving for f18.air2, Initial residual = 0, Final residual = 0, No Iterations 0
diagonal:  Solving for f19.air2, Initial residual = 0, Final residual = 0, No Iterations 0
diagonal:  Solving for f20.air2, Initial residual = 0, Final residual = 0, No Iterations 0
diagonal:  Solving for f21.air2, Initial residual = 0, Final residual = 0, No Iterations 0
diagonal:  Solving for f22.air2, Initial residual = 0, Final residual = 0, No Iterations 0
diagonal:  Solving for f23.air3, Initial residual = 0, Final residual = 0, No Iterations 0
diagonal:  Solving for f24.air3, Initial residual = 0, Final residual = 0, No Iterations 0
diagonal:  Solving for f25.air3, Initial residual = 0, Final residual = 0, No Iterations 0
diagonal:  Solving for f26.air3, Initial residual = 0, Final residual = 0, No Iterations 0
diagonal:  Solving for f27.air3, Initial residual = 0, Final residual = 0, No Iterations 0
diagonal:  Solving for f28.air3, Initial residual = 0, Final residual = 0, No Iterations 0
diagonal:  Solving for f29.air3, Initial residual = 0, Final residual = 0, No Iterations 0
diagonal:  Solving for f30.air3, Initial residual = 0, Final residual = 0, No Iterations 0
bubbles sizeGroup phase fraction first, last = 1.21656e-05 0.000451368
Scaling sizeGroups for velocityGroup air1
air1 sizeGroups-sum volume fraction, min, max = 1 1 1
air1 Sauter mean diameter, min, max = 2.62326 2.62326 2.62326
Scaling sizeGroups for velocityGroup air2
air2 sizeGroups-sum volume fraction, min, max = 1 1 1
air2 Sauter mean diameter, min, max = 5.69105 5.69105 5.69105
Scaling sizeGroups for velocityGroup air3
air3 sizeGroups-sum volume fraction, min, max = 1 1 1
air3 Sauter mean diameter, min, max = 8.70953 8.70953 8.70953
Constructing momentum equations
diagonal:  Solving for p_rgh, Initial residual = 0, Final residual = 0, No Iterations 0
Time = 9.9s

ExecutionTime = 6.4326 s  ClockTime = 7 s

Courant Number mean: 0 max: 0
MULES: Solving for alpha.air1
MULES: Solving for alpha.air2
MULES: Solving for alpha.air3
MULES: Solving for alpha.water
air1 fraction, min, max = 0.00575017 0.00575017 0.00575017
air2 fraction, min, max = 0.22815 0.22815 0.22815
air3 fraction, min, max = 0.7661 0.7661 0.7661
water fraction, min, max = 0 0 0
Phase-sum volume fraction, min, max = 1 1 1
populationBalance bubbles: Iteration 1
diagonal:  Solving for f0.air1, Initial residual = 0, Final residual = 0, No Iterations 0
diagonal:  Solving for f1.air1, Initial residual = 0, Final residual = 0, No Iterations 0
diagonal:  Solving for f2.air1, Initial residual = 0, Final residual = 0, No Iterations 0
diagonal:  Solving for f3.air1, Initial residual = 0, Final residual = 0, No Iterations 0
diagonal:  Solving for f4.air1, Initial residual = 0, Final residual = 0, No Iterations 0
diagonal:  Solving for f5.air1, Initial residual = 0, Final residual = 0, No Iterations 0
diagonal:  Solving for f6.air1, Initial residual = 0, Final residual = 0, No Iterations 0
diagonal:  Solving for f7.air1, Initial residual = 0, Final residual = 0, No Iterations 0
diagonal:  Solving for f8.air1, Initial residual = 0, Final residual = 0, No Iterations 0
diagonal:  Solving for f9.air1, Initial residual = 0, Final residual = 0, No Iterations 0
diagonal:  Solving for f10.air1, Initial residual = 0, Final residual = 0, No Iterations 0
diagonal:  Solving for f11.air1, Initial residual = 0, Final residual = 0, No Iterations 0
diagonal:  Solving for f12.air1, Initial residual = 0, Final residual = 0, No Iterations 0
diagonal:  Solving for f13.air2, Initial residual = 0, Final residual = 0, No Iterations 0
diagonal:  Solving for f14.air2, Initial residual = 0, Final residual = 0, No Iterations 0
diagonal:  Solving for f15.air2, Initial residual = 0, Final residual = 0, No Iterations 0
diagonal:  Solving for f16.air2, Initial residual = 0, Final residual = 0, No Iterations 0
diagonal:  Solving for f17.air2, Initial residual = 0, Final residual = 0, No Iterations 0
diagonal:  Solving for f18.air2, Initial residual = 0, Final residual = 0, No Iterations 0
diagonal:  Solving for f19.air2, Initial residual = 0, Final residual = 0, No Iterations 0
diagonal:  Solving for f20.air2, Initial residual = 0, Final residual = 0, No Iterations 0
diagonal:  Solving for f21.air2, Initial residual = 0, Final residual = 0, No Iterations 0
diagonal:  Solving for f22.air2, Initial residual = 0, Final residual = 0, No Iterations 0
diagonal:  Solving for f23.air3, Initial residual = 0, Final residual = 0, No Iterations 0
diagonal:  Solving for f24.air3, Initial residual = 0, Final residual = 0, No Iterations 0
diagonal:  Solving for f25.air3, Initial residual = 0, Final residual = 0, No Iterations 0
diagonal:  Solving for f26.air3, Initial residual = 0, Final residual = 0, No Iterations 0
diagonal:  Solving for f27.air3, Initial residual = 0, Final residual = 0, No Iterations 0
diagonal:  Solving for f28.air3, Initial residual = 0, Final residual = 0, No Iterations 0
diagonal:  Solving for f29.air3, Initial residual = 0, Final residual = 0, No Iterations 0
diagonal:  Solving for f30.air3, Initial residual = 0, Final residual = 0, No Iterations 0
bubbles sizeGroup phase fraction first, last = 1.216e-05 0.000451368
Scaling sizeGroups for velocityGroup air1
air1 sizeGroups-sum volume fraction, min, max = 1 1 1
air1 Sauter mean diameter, min, max = 2.62327 2.62327 2.62327
Scaling sizeGroups for velocityGroup air2
air2 sizeGroups-sum volume fraction, min, max = 1 1 1
air2 Sauter mean diameter, min, max = 5.69105 5.69105 5.69105
Scaling sizeGroups for velocityGroup air3
air3 sizeGroups-sum volume fraction, min, max = 1 1 1
air3 Sauter mean diameter, min, max = 8.70953 8.70953 8.70953
Constructing momentum equations
diagonal:  Solving for p_rgh, Initial residual = 0, Final residual = 0, No Iterations 0
Time = 10s

ExecutionTime = 6.48491 s  ClockTime = 7 s

End

