/*---------------------------------------------------------------------------*\
  =========                 |
  \\      /  F ield         | OpenFOAM: The Open Source CFD Toolbox
   \\    /   O peration     | Website:  https://openfoam.org
    \\  /    A nd           | Version:  12
     \\/     M anipulation  |
\*---------------------------------------------------------------------------*/
Build  : 12-cc05c1b03c38
Exec   : boundaryFoam
Date   : Oct 04 2024
Time   : 23:19:47
Host   : "DESKTOP-KBPC6IC"
PID    : 24557
I/O    : uncollated
Case   : /home/as/openfoam/OpenFOAM-12/test/boundaryLayer/boundaryWallFunctionsProfile
nProcs : 1
sigFpe : Enabling floating point exception trapping (FOAM_SIGFPE).
fileModificationChecking : Monitoring run-time modified files using timeStampMaster (fileModificationSkew 10)
allowSystemOperations : Allowing user-supplied system call operations

// * * * * * * * * * * * * * * * * * * * * * * * * * * * * * * * * * * * * * //
Create time

Create mesh for time = 0

Reading field U

Creating face flux

Selecting viscosity model constant
Selecting turbulence model type RAS
Selecting RAS turbulence model kEpsilon
RAS
{
    model           kEpsilon;
    turbulence      on;
    printCoeffs     on;
    Cmu             0.09;
    C1              1.44;
    C2              1.92;
    C3              0;
    sigmak          1;
    sigmaEps        1.3;
}

No fvModels present
No fvConstraints present
Generating wall data for patch: lowerWall
    Height to first cell centre y0 = 0.000625

Starting time loop

Time = 1s

DICPCG:  Solving for Ux, Initial residual = 1, Final residual = 1.09446e-08, No Iterations 4
DICPCG:  Solving for Uy, Initial residual = 0, Final residual = 0, No Iterations 0
smoothSolver:  Solving for epsilon, Initial residual = 0.0199895, Final residual = 4.25749e-07, No Iterations 8
smoothSolver:  Solving for k, Initial residual = 1, Final residual = 6.67558e-07, No Iterations 10
Uncorrected Ubar = 0.988503, pressure gradient = 24708.9
Rey = 6.04411, uTau = 3.93356, nut+ = 0, nuEff+ = 1, y+ = 2.45848, u+ = 2.45848, k+ = 2.18644e-11, epsilon+ = 2.13858e-11, omega+ = 10.8679
ExecutionTime = 0.006471 s  ClockTime = 0 s

Time = 2s

DICPCG:  Solving for Ux, Initial residual = 0.998752, Final residual = 1.35076e-07, No Iterations 3
DICPCG:  Solving for Uy, Initial residual = 0, Final residual = 0, No Iterations 0
smoothSolver:  Solving for epsilon, Initial residual = 0.194752, Final residual = 4.81374e-07, No Iterations 5
smoothSolver:  Solving for k, Initial residual = 0.179931, Final residual = 9.56042e-07, No Iterations 9
Uncorrected Ubar = 27.7426, pressure gradient = -23940.2
Rey = 1.53598, uTau = 1.98295, nut+ = 0, nuEff+ = 1, y+ = 1.23935, u+ = 1.23935, k+ = 3.11981e-11, epsilon+ = 1.12029e-10, omega+ = 39.8987
ExecutionTime = 0.00746 s  ClockTime = 0 s

Time = 3s

DICPCG:  Solving for Ux, Initial residual = 0.910439, Final residual = 1.4179e-07, No Iterations 3
DICPCG:  Solving for Uy, Initial residual = 0, Final residual = 0, No Iterations 0
smoothSolver:  Solving for epsilon, Initial residual = 0.185458, Final residual = 2.88245e-07, No Iterations 6
smoothSolver:  Solving for k, Initial residual = 0.0794857, Final residual = 8.28576e-07, No Iterations 9
Uncorrected Ubar = -7.31679, pressure gradient = 23541.3
Rey = 5.24071, uTau = 3.66282, nut+ = 0, nuEff+ = 1, y+ = 2.28926, u+ = 2.28926, k+ = 3.55416e-12, epsilon+ = 3.4895e-12, omega+ = 10.909
ExecutionTime = 0.008342 s  ClockTime = 0 s

Time = 4s

DICPCG:  Solving for Ux, Initial residual = 0.984613, Final residual = 1.32823e-07, No Iterations 3
DICPCG:  Solving for Uy, Initial residual = 0, Final residual = 0, No Iterations 0
smoothSolver:  Solving for epsilon, Initial residual = 0.0985599, Final residual = 7.05357e-07, No Iterations 6
smoothSolver:  Solving for k, Initial residual = 0.0356835, Final residual = 7.29849e-07, No Iterations 9
Uncorrected Ubar = 26.9162, pressure gradient = -22841.8
Rey = 1.85619, uTau = 2.17988, nut+ = 0, nuEff+ = 1, y+ = 1.36242, u+ = 1.36242, k+ = 5.00382e-12, epsilon+ = 1.08121e-11, omega+ = 24.0085
ExecutionTime = 0.009201 s  ClockTime = 0 s

Time = 5s

DICPCG:  Solving for Ux, Initial residual = 0.898475, Final residual = 1.3768e-07, No Iterations 3
DICPCG:  Solving for Uy, Initial residual = 0, Final residual = 0, No Iterations 0
smoothSolver:  Solving for epsilon, Initial residual = 0.119756, Final residual = 4.24018e-07, No Iterations 7
smoothSolver:  Solving for k, Initial residual = 0.029747, Final residual = 7.38972e-07, No Iterations 9
Uncorrected Ubar = -6.51343, pressure gradient = 22436.9
Rey = 4.70784, uTau = 3.47161, nut+ = 0, nuEff+ = 1, y+ = 2.16976, u+ = 2.16976, k+ = 1.17159e-12, epsilon+ = 8.38131e-13, omega+ = 7.94869
ExecutionTime = 0.010077 s  ClockTime = 0 s

Time = 6s

DICPCG:  Solving for Ux, Initial residual = 0.973089, Final residual = 1.3437e-07, No Iterations 3
DICPCG:  Solving for Uy, Initial residual = 0, Final residual = 0, No Iterations 0
smoothSolver:  Solving for epsilon, Initial residual = 0.0498606, Final residual = 4.54808e-07, No Iterations 7
smoothSolver:  Solving for k, Initial residual = 0.0294304, Final residual = 6.44204e-07, No Iterations 9
Uncorrected Ubar = 26.1291, pressure gradient = -21788.1
Rey = 1.98383, uTau = 2.25357, nut+ = 0, nuEff+ = 1, y+ = 1.40848, u+ = 1.40848, k+ = 2.82848e-12, epsilon+ = 2.80297e-12, omega+ = 11.0109
ExecutionTime = 0.010939 s  ClockTime = 0 s

Time = 7s

DICPCG:  Solving for Ux, Initial residual = 0.887109, Final residual = 1.336e-07, No Iterations 3
DICPCG:  Solving for Uy, Initial residual = 0, Final residual = 0, No Iterations 0
smoothSolver:  Solving for epsilon, Initial residual = 0.0729352, Final residual = 4.42136e-07, No Iterations 7
smoothSolver:  Solving for k, Initial residual = 0.023356, Final residual = 6.71055e-07, No Iterations 9
Uncorrected Ubar = -5.74674, pressure gradient = 21388.4
Rey = 4.32979, uTau = 3.3293, nut+ = 0, nuEff+ = 1, y+ = 2.08081, u+ = 2.08081, k+ = 1.16383e-12, epsilon+ = 5.98623e-13, omega+ = 5.71505
ExecutionTime = 0.011834 s  ClockTime = 0 s

Time = 8s

DICPCG:  Solving for Ux, Initial residual = 0.962749, Final residual = 1.35037e-07, No Iterations 3
DICPCG:  Solving for Uy, Initial residual = 0, Final residual = 0, No Iterations 0
smoothSolver:  Solving for epsilon, Initial residual = 0.108492, Final residual = 9.09621e-07, No Iterations 7
smoothSolver:  Solving for k, Initial residual = 0.0391278, Final residual = 5.86363e-07, No Iterations 9
Uncorrected Ubar = 25.3791, pressure gradient = -20780
Rey = 2.01141, uTau = 2.26919, nut+ = 0, nuEff+ = 1, y+ = 1.41824, u+ = 1.41824, k+ = 3.71313e-12, epsilon+ = 2.49106e-12, omega+ = 7.45423
ExecutionTime = 0.013149 s  ClockTime = 0 s

Time = 9s

DICPCG:  Solving for Ux, Initial residual = 0.87695, Final residual = 1.30646e-07, No Iterations 3
DICPCG:  Solving for Uy, Initial residual = 0, Final residual = 0, No Iterations 0
smoothSolver:  Solving for epsilon, Initial residual = 0.061791, Final residual = 4.95292e-07, No Iterations 7
smoothSolver:  Solving for k, Initial residual = 0.0284403, Final residual = 6.28025e-07, No Iterations 9
Uncorrected Ubar = -5.01536, pressure gradient = 20391.1
Rey = 4.03762, uTau = 3.21501, nut+ = 0, nuEff+ = 1, y+ = 2.00938, u+ = 2.00938, k+ = 1.75305e-12, epsilon+ = 9.16261e-13, omega+ = 5.8074
ExecutionTime = 0.014104 s  ClockTime = 0 s

Time = 10s

DICPCG:  Solving for Ux, Initial residual = 0.953193, Final residual = 1.34895e-07, No Iterations 3
DICPCG:  Solving for Uy, Initial residual = 0, Final residual = 0, No Iterations 0
smoothSolver:  Solving for epsilon, Initial residual = 0.10182, Final residual = 8.23222e-07, No Iterations 7
smoothSolver:  Solving for k, Initial residual = 0.0490835, Final residual = 5.78319e-07, No Iterations 9
Uncorrected Ubar = 24.6641, pressure gradient = -19817
Rey = 1.98759, uTau = 2.25571, nut+ = 0, nuEff+ = 1, y+ = 1.40982, u+ = 1.40982, k+ = 5.28955e-12, epsilon+ = 3.58342e-12, omega+ = 7.52725
ExecutionTime = 0.014989 s  ClockTime = 0 s

Time = 11s

DICPCG:  Solving for Ux, Initial residual = 0.867278, Final residual = 1.28379e-07, No Iterations 3
DICPCG:  Solving for Uy, Initial residual = 0, Final residual = 0, No Iterations 0
smoothSolver:  Solving for epsilon, Initial residual = 0.0568297, Final residual = 4.23426e-07, No Iterations 7
smoothSolver:  Solving for k, Initial residual = 0.0355127, Final residual = 6.23792e-07, No Iterations 9
Uncorrected Ubar = -4.31781, pressure gradient = 19441.5
Rey = 3.79635, uTau = 3.11748, nut+ = 0, nuEff+ = 1, y+ = 1.94842, u+ = 1.94842, k+ = 2.55227e-12, epsilon+ = 1.45896e-12, omega+ = 6.35146
ExecutionTime = 0.015878 s  ClockTime = 0 s

Time = 12s

DICPCG:  Solving for Ux, Initial residual = 0.941103, Final residual = 1.33881e-07, No Iterations 3
DICPCG:  Solving for Uy, Initial residual = 0, Final residual = 0, No Iterations 0
smoothSolver:  Solving for epsilon, Initial residual = 0.0862902, Final residual = 6.16635e-07, No Iterations 7
smoothSolver:  Solving for k, Initial residual = 0.0580567, Final residual = 5.96449e-07, No Iterations 9
Uncorrected Ubar = 23.9825, pressure gradient = -18897.7
Rey = 1.93665, uTau = 2.22662, nut+ = 0, nuEff+ = 1, y+ = 1.39164, u+ = 1.39164, k+ = 7.02524e-12, epsilon+ = 5.16677e-12, omega+ = 8.17176
ExecutionTime = 0.016778 s  ClockTime = 0 s

Time = 13s

DICPCG:  Solving for Ux, Initial residual = 0.858012, Final residual = 1.26509e-07, No Iterations 3
DICPCG:  Solving for Uy, Initial residual = 0, Final residual = 0, No Iterations 0
smoothSolver:  Solving for epsilon, Initial residual = 0.0530038, Final residual = 3.33477e-07, No Iterations 7
smoothSolver:  Solving for k, Initial residual = 0.0425565, Final residual = 6.27736e-07, No Iterations 9
Uncorrected Ubar = -3.65259, pressure gradient = 18536.8
Rey = 3.58798, uTau = 3.03072, nut+ = 0, nuEff+ = 1, y+ = 1.8942, u+ = 1.8942, k+ = 3.41222e-12, epsilon+ = 2.11369e-12, omega+ = 6.88276
ExecutionTime = 0.018046 s  ClockTime = 0 s

Time = 14s

DICPCG:  Solving for Ux, Initial residual = 0.928366, Final residual = 1.32498e-07, No Iterations 3
DICPCG:  Solving for Uy, Initial residual = 0, Final residual = 0, No Iterations 0
smoothSolver:  Solving for epsilon, Initial residual = 0.0735956, Final residual = 4.6197e-07, No Iterations 7
smoothSolver:  Solving for k, Initial residual = 0.0636249, Final residual = 5.93341e-07, No Iterations 9
Uncorrected Ubar = 23.3326, pressure gradient = -18020.4
Rey = 1.87114, uTau = 2.18863, nut+ = 0, nuEff+ = 1, y+ = 1.3679, u+ = 1.3679, k+ = 8.77069e-12, epsilon+ = 6.99366e-12, omega+ = 8.8599
ExecutionTime = 0.018963 s  ClockTime = 0 s

Time = 15s

DICPCG:  Solving for Ux, Initial residual = 0.848695, Final residual = 1.24816e-07, No Iterations 3
DICPCG:  Solving for Uy, Initial residual = 0, Final residual = 0, No Iterations 0
smoothSolver:  Solving for epsilon, Initial residual = 0.0493048, Final residual = 9.41379e-07, No Iterations 6
smoothSolver:  Solving for k, Initial residual = 0.0468038, Final residual = 6.0261e-07, No Iterations 9
Uncorrected Ubar = -3.01823, pressure gradient = 17674.7
Rey = 3.40273, uTau = 2.95144, nut+ = 0, nuEff+ = 1, y+ = 1.84465, u+ = 1.84465, k+ = 4.28308e-12, epsilon+ = 2.83475e-12, omega+ = 7.35388
ExecutionTime = 0.019825 s  ClockTime = 0 s

Time = 16s

DICPCG:  Solving for Ux, Initial residual = 0.915577, Final residual = 1.30955e-07, No Iterations 3
DICPCG:  Solving for Uy, Initial residual = 0, Final residual = 0, No Iterations 0
smoothSolver:  Solving for epsilon, Initial residual = 0.0643111, Final residual = 3.60709e-07, No Iterations 7
smoothSolver:  Solving for k, Initial residual = 0.0660565, Final residual = 5.6735e-07, No Iterations 9
Uncorrected Ubar = 22.713, pressure gradient = -17183.5
Rey = 1.79788, uTau = 2.14536, nut+ = 0, nuEff+ = 1, y+ = 1.34085, u+ = 1.34085, k+ = 1.05216e-11, epsilon+ = 9.01766e-12, omega+ = 9.52287
ExecutionTime = 0.020687 s  ClockTime = 0 s

Time = 17s

DICPCG:  Solving for Ux, Initial residual = 0.83957, Final residual = 1.23258e-07, No Iterations 3
DICPCG:  Solving for Uy, Initial residual = 0, Final residual = 0, No Iterations 0
smoothSolver:  Solving for epsilon, Initial residual = 0.0457623, Final residual = 7.76062e-07, No Iterations 6
smoothSolver:  Solving for k, Initial residual = 0.0489061, Final residual = 5.57647e-07, No Iterations 9
Uncorrected Ubar = -2.41333, pressure gradient = 16853
Rey = 3.23487, uTau = 2.87772, nut+ = 0, nuEff+ = 1, y+ = 1.79857, u+ = 1.79857, k+ = 5.16556e-12, epsilon+ = 3.61543e-12, omega+ = 7.77677
ExecutionTime = 0.021554 s  ClockTime = 0 s

Time = 18s

DICPCG:  Solving for Ux, Initial residual = 0.902883, Final residual = 1.29336e-07, No Iterations 3
DICPCG:  Solving for Uy, Initial residual = 0, Final residual = 0, No Iterations 0
smoothSolver:  Solving for epsilon, Initial residual = 0.0575418, Final residual = 2.94993e-07, No Iterations 7
smoothSolver:  Solving for k, Initial residual = 0.0665882, Final residual = 5.26599e-07, No Iterations 9
Uncorrected Ubar = 22.1222, pressure gradient = -16385.2
Rey = 1.72079, uTau = 2.09886, nut+ = 0, nuEff+ = 1, y+ = 1.31179, u+ = 1.31179, k+ = 1.23306e-11, epsilon+ = 1.12862e-11, omega+ = 10.17
ExecutionTime = 0.022411 s  ClockTime = 0 s

Time = 19s

DICPCG:  Solving for Ux, Initial residual = 0.830289, Final residual = 1.2174e-07, No Iterations 3
DICPCG:  Solving for Uy, Initial residual = 0, Final residual = 0, No Iterations 0
smoothSolver:  Solving for epsilon, Initial residual = 0.0425019, Final residual = 6.62972e-07, No Iterations 6
smoothSolver:  Solving for k, Initial residual = 0.0497801, Final residual = 5.09245e-07, No Iterations 9
Uncorrected Ubar = -1.83652, pressure gradient = 16069.8
Rey = 3.08082, uTau = 2.80836, nut+ = 0, nuEff+ = 1, y+ = 1.75523, u+ = 1.75523, k+ = 6.08207e-12, epsilon+ = 4.47106e-12, omega+ = 8.16803
ExecutionTime = 0.02326 s  ClockTime = 0 s

Time = 20s

DICPCG:  Solving for Ux, Initial residual = 0.890261, Final residual = 1.27673e-07, No Iterations 3
DICPCG:  Solving for Uy, Initial residual = 0, Final residual = 0, No Iterations 0
smoothSolver:  Solving for epsilon, Initial residual = 0.0524749, Final residual = 2.50935e-07, No Iterations 7
smoothSolver:  Solving for k, Initial residual = 0.0664966, Final residual = 4.84442e-07, No Iterations 9
Uncorrected Ubar = 21.5588, pressure gradient = -15623.7
Rey = 1.64224, uTau = 2.0504, nut+ = 0, nuEff+ = 1, y+ = 1.2815, u+ = 1.2815, k+ = 1.4269e-11, epsilon+ = 1.38954e-11, omega+ = 10.8202
ExecutionTime = 0.024119 s  ClockTime = 0 s

Time = 21s

DICPCG:  Solving for Ux, Initial residual = 0.820832, Final residual = 1.20237e-07, No Iterations 3
DICPCG:  Solving for Uy, Initial residual = 0, Final residual = 0, No Iterations 0
smoothSolver:  Solving for epsilon, Initial residual = 0.0395586, Final residual = 5.84529e-07, No Iterations 6
smoothSolver:  Solving for k, Initial residual = 0.0499908, Final residual = 4.60395e-07, No Iterations 9
Uncorrected Ubar = -1.28651, pressure gradient = 15323.2
Rey = 2.93819, uTau = 2.74258, nut+ = 0, nuEff+ = 1, y+ = 1.71412, u+ = 1.71412, k+ = 7.0626e-12, epsilon+ = 5.42878e-12, omega+ = 8.54074
ExecutionTime = 0.025034 s  ClockTime = 0 s

Time = 22s

DICPCG:  Solving for Ux, Initial residual = 0.877489, Final residual = 1.25951e-07, No Iterations 3
DICPCG:  Solving for Uy, Initial residual = 0, Final residual = 0, No Iterations 0
smoothSolver:  Solving for epsilon, Initial residual = 0.048542, Final residual = 9.03414e-07, No Iterations 6
smoothSolver:  Solving for k, Initial residual = 0.0655922, Final residual = 4.39087e-07, No Iterations 9
Uncorrected Ubar = 21.0216, pressure gradient = -14897.5
Rey = 1.56371, uTau = 2.00078, nut+ = 0, nuEff+ = 1, y+ = 1.25049, u+ = 1.25049, k+ = 1.64135e-11, epsilon+ = 1.69731e-11, omega+ = 11.4899
ExecutionTime = 0.025896 s  ClockTime = 0 s

Time = 23s

DICPCG:  Solving for Ux, Initial residual = 0.811346, Final residual = 1.18758e-07, No Iterations 3
DICPCG:  Solving for Uy, Initial residual = 0, Final residual = 0, No Iterations 0
smoothSolver:  Solving for epsilon, Initial residual = 0.0369235, Final residual = 5.31292e-07, No Iterations 6
smoothSolver:  Solving for k, Initial residual = 0.0475747, Final residual = 3.9755e-07, No Iterations 9
Uncorrected Ubar = -0.762041, pressure gradient = 14611.3
Rey = 2.80531, uTau = 2.67985, nut+ = 0, nuEff+ = 1, y+ = 1.6749, u+ = 1.6749, k+ = 8.13941e-12, epsilon+ = 6.52272e-12, omega+ = 8.90417
ExecutionTime = 0.026835 s  ClockTime = 0 s

Time = 24s

DICPCG:  Solving for Ux, Initial residual = 0.864492, Final residual = 1.24173e-07, No Iterations 3
DICPCG:  Solving for Uy, Initial residual = 0, Final residual = 0, No Iterations 0
smoothSolver:  Solving for epsilon, Initial residual = 0.045383, Final residual = 8.32107e-07, No Iterations 6
smoothSolver:  Solving for k, Initial residual = 0.0618115, Final residual = 3.79447e-07, No Iterations 9
Uncorrected Ubar = 20.5094, pressure gradient = -14204.9
Rey = 1.48615, uTau = 1.95052, nut+ = 0, nuEff+ = 1, y+ = 1.21908, u+ = 1.21908, k+ = 1.88437e-11, epsilon+ = 2.06766e-11, omega+ = 12.1919
ExecutionTime = 0.02771 s  ClockTime = 0 s

Time = 25s

DICPCG:  Solving for Ux, Initial residual = 0.801798, Final residual = 1.17288e-07, No Iterations 3
DICPCG:  Solving for Uy, Initial residual = 0, Final residual = 0, No Iterations 0
smoothSolver:  Solving for epsilon, Initial residual = 0.0345728, Final residual = 4.94894e-07, No Iterations 6
smoothSolver:  Solving for k, Initial residual = 0.0449139, Final residual = 3.40631e-07, No Iterations 9
Uncorrected Ubar = -0.261943, pressure gradient = 13932.7
Rey = 2.68093, uTau = 2.61977, nut+ = 0, nuEff+ = 1, y+ = 1.63735, u+ = 1.63735, k+ = 9.34577e-12, epsilon+ = 7.79268e-12, omega+ = 9.26466
ExecutionTime = 0.028965 s  ClockTime = 0 s

Time = 26s

DICPCG:  Solving for Ux, Initial residual = 0.851419, Final residual = 1.22365e-07, No Iterations 3
DICPCG:  Solving for Uy, Initial residual = 0, Final residual = 0, No Iterations 0
smoothSolver:  Solving for epsilon, Initial residual = 0.042761, Final residual = 7.84835e-07, No Iterations 6
smoothSolver:  Solving for k, Initial residual = 0.0579151, Final residual = 3.26874e-07, No Iterations 9
Uncorrected Ubar = 20.0211, pressure gradient = -13544.4
Rey = 1.41015, uTau = 1.9, nut+ = 0, nuEff+ = 1, y+ = 1.1875, u+ = 1.1875, k+ = 2.16445e-11, epsilon+ = 2.51999e-11, omega+ = 12.9362
ExecutionTime = 0.029959 s  ClockTime = 0 s

Time = 27s

DICPCG:  Solving for Ux, Initial residual = 0.791805, Final residual = 1.15767e-07, No Iterations 3
DICPCG:  Solving for Uy, Initial residual = 0, Final residual = 0, No Iterations 0
smoothSolver:  Solving for epsilon, Initial residual = 0.0324722, Final residual = 4.71304e-07, No Iterations 6
smoothSolver:  Solving for k, Initial residual = 0.0423833, Final residual = 9.4156e-07, No Iterations 8
Uncorrected Ubar = 0.214919, pressure gradient = 13285.7
Rey = 2.56411, uTau = 2.56205, nut+ = 0, nuEff+ = 1, y+ = 1.60128, u+ = 1.60128, k+ = 1.07167e-11, epsilon+ = 9.28476e-12, omega+ = 9.62649
ExecutionTime = 0.030823 s  ClockTime = 0 s

Time = 28s

DICPCG:  Solving for Ux, Initial residual = 0.838254, Final residual = 1.20531e-07, No Iterations 3
DICPCG:  Solving for Uy, Initial residual = 0, Final residual = 0, No Iterations 0
smoothSolver:  Solving for epsilon, Initial residual = 0.0405404, Final residual = 7.53236e-07, No Iterations 6
smoothSolver:  Solving for k, Initial residual = 0.05439, Final residual = 9.26341e-07, No Iterations 8
Uncorrected Ubar = 19.5554, pressure gradient = -12914.5
Rey = 1.33612, uTau = 1.84945, nut+ = 0, nuEff+ = 1, y+ = 1.15591, u+ = 1.15591, k+ = 2.49106e-11, epsilon+ = 3.07846e-11, omega+ = 13.7311
ExecutionTime = 0.03172 s  ClockTime = 0 s

Time = 29s

DICPCG:  Solving for Ux, Initial residual = 0.781681, Final residual = 1.14238e-07, No Iterations 3
DICPCG:  Solving for Uy, Initial residual = 0, Final residual = 0, No Iterations 0
smoothSolver:  Solving for epsilon, Initial residual = 0.0305911, Final residual = 4.56669e-07, No Iterations 6
smoothSolver:  Solving for k, Initial residual = 0.0401242, Final residual = 8.25036e-07, No Iterations 8
Uncorrected Ubar = 0.669625, pressure gradient = 12668.8
Rey = 2.4541, uTau = 2.50649, nut+ = 0, nuEff+ = 1, y+ = 1.56656, u+ = 1.56656, k+ = 1.22901e-11, epsilon+ = 1.10529e-11, omega+ = 9.99258
ExecutionTime = 0.032574 s  ClockTime = 0 s

Time = 30s

DICPCG:  Solving for Ux, Initial residual = 0.824983, Final residual = 1.18671e-07, No Iterations 3
DICPCG:  Solving for Uy, Initial residual = 0, Final residual = 0, No Iterations 0
smoothSolver:  Solving for epsilon, Initial residual = 0.0386255, Final residual = 7.33927e-07, No Iterations 6
smoothSolver:  Solving for k, Initial residual = 0.0514344, Final residual = 8.16352e-07, No Iterations 8
Uncorrected Ubar = 19.1113, pressure gradient = -12313.8
Rey = 1.26432, uTau = 1.79907, nut+ = 0, nuEff+ = 1, y+ = 1.12442, u+ = 1.12442, k+ = 2.87509e-11, epsilon+ = 3.7737e-11, omega+ = 14.5839
ExecutionTime = 0.03356 s  ClockTime = 0 s

Time = 31s

DICPCG:  Solving for Ux, Initial residual = 0.771424, Final residual = 1.12698e-07, No Iterations 3
DICPCG:  Solving for Uy, Initial residual = 0, Final residual = 0, No Iterations 0
smoothSolver:  Solving for epsilon, Initial residual = 0.0288991, Final residual = 4.49193e-07, No Iterations 6
smoothSolver:  Solving for k, Initial residual = 0.0381723, Final residual = 7.29464e-07, No Iterations 8
Uncorrected Ubar = 1.1032, pressure gradient = 12080.6
Rey = 2.35028, uTau = 2.4529, nut+ = 0, nuEff+ = 1, y+ = 1.53306, u+ = 1.53306, k+ = 1.41088e-11, epsilon+ = 1.31612e-11, omega+ = 10.3649
ExecutionTime = 0.034797 s  ClockTime = 0 s

Time = 32s

DICPCG:  Solving for Ux, Initial residual = 0.811321, Final residual = 1.16746e-07, No Iterations 3
DICPCG:  Solving for Uy, Initial residual = 0, Final residual = 0, No Iterations 0
smoothSolver:  Solving for epsilon, Initial residual = 0.0369521, Final residual = 7.23159e-07, No Iterations 6
smoothSolver:  Solving for k, Initial residual = 0.0489375, Final residual = 7.30436e-07, No Iterations 8
Uncorrected Ubar = 18.6879, pressure gradient = -11741
Rey = 1.19488, uTau = 1.74897, nut+ = 0, nuEff+ = 1, y+ = 1.09311, u+ = 1.09311, k+ = 3.32946e-11, epsilon+ = 4.64502e-11, omega+ = 15.5014
ExecutionTime = 0.035683 s  ClockTime = 0 s

Time = 33s

DICPCG:  Solving for Ux, Initial residual = 0.761024, Final residual = 1.11143e-07, No Iterations 3
DICPCG:  Solving for Uy, Initial residual = 0, Final residual = 0, No Iterations 0
smoothSolver:  Solving for epsilon, Initial residual = 0.0273835, Final residual = 4.46968e-07, No Iterations 6
smoothSolver:  Solving for k, Initial residual = 0.0365643, Final residual = 6.537e-07, No Iterations 8
Uncorrected Ubar = 1.51663, pressure gradient = 11519.8
Rey = 2.25215, uTau = 2.40115, nut+ = 0, nuEff+ = 1, y+ = 1.50072, u+ = 1.50072, k+ = 1.62214e-11, epsilon+ = 1.56868e-11, omega+ = 10.7449
ExecutionTime = 0.036583 s  ClockTime = 0 s

Time = 34s

DICPCG:  Solving for Ux, Initial residual = 0.797511, Final residual = 1.14794e-07, No Iterations 3
DICPCG:  Solving for Uy, Initial residual = 0, Final residual = 0, No Iterations 0
smoothSolver:  Solving for epsilon, Initial residual = 0.0354744, Final residual = 7.19335e-07, No Iterations 6
smoothSolver:  Solving for k, Initial residual = 0.0468095, Final residual = 6.59062e-07, No Iterations 8
Uncorrected Ubar = 18.2842, pressure gradient = -11194.8
Rey = 1.12791, uTau = 1.69925, nut+ = 0, nuEff+ = 1, y+ = 1.06203, u+ = 1.06203, k+ = 3.86974e-11, epsilon+ = 5.74337e-11, omega+ = 16.4909
ExecutionTime = 0.037444 s  ClockTime = 0 s

Time = 35s

DICPCG:  Solving for Ux, Initial residual = 0.750374, Final residual = 1.09558e-07, No Iterations 3
DICPCG:  Solving for Uy, Initial residual = 0, Final residual = 0, No Iterations 0
smoothSolver:  Solving for epsilon, Initial residual = 0.0260239, Final residual = 4.49551e-07, No Iterations 6
smoothSolver:  Solving for k, Initial residual = 0.0351311, Final residual = 5.93045e-07, No Iterations 8
Uncorrected Ubar = 1.91085, pressure gradient = 10985.1
Rey = 2.15926, uTau = 2.35111, nut+ = 0, nuEff+ = 1, y+ = 1.46944, u+ = 1.46944, k+ = 1.8685e-11, epsilon+ = 1.8723e-11, omega+ = 11.1337
ExecutionTime = 0.038293 s  ClockTime = 0 s

Time = 36s

DICPCG:  Solving for Ux, Initial residual = 0.783572, Final residual = 1.12817e-07, No Iterations 3
DICPCG:  Solving for Uy, Initial residual = 0, Final residual = 0, No Iterations 0
smoothSolver:  Solving for epsilon, Initial residual = 0.0341606, Final residual = 7.20844e-07, No Iterations 6
smoothSolver:  Solving for k, Initial residual = 0.0449122, Final residual = 6.0236e-07, No Iterations 8
Uncorrected Ubar = 17.8992, pressure gradient = -10674
Rey = 1.06343, uTau = 1.64997, nut+ = 0, nuEff+ = 1, y+ = 1.03123, u+ = 1.03123, k+ = 4.51493e-11, epsilon+ = 7.13526e-11, omega+ = 17.5597
ExecutionTime = 0.039197 s  ClockTime = 0 s

Time = 37s

DICPCG:  Solving for Ux, Initial residual = 0.739365, Final residual = 1.07925e-07, No Iterations 3
DICPCG:  Solving for Uy, Initial residual = 0, Final residual = 0, No Iterations 0
smoothSolver:  Solving for epsilon, Initial residual = 0.0248024, Final residual = 4.56523e-07, No Iterations 6
smoothSolver:  Solving for k, Initial residual = 0.0338891, Final residual = 5.42658e-07, No Iterations 8
Uncorrected Ubar = 2.28675, pressure gradient = 10475.3
Rey = 2.07125, uTau = 2.30269, nut+ = 0, nuEff+ = 1, y+ = 1.43918, u+ = 1.43918, k+ = 2.15667e-11, epsilon+ = 2.23835e-11, omega+ = 11.5319
ExecutionTime = 0.040051 s  ClockTime = 0 s

Time = 38s

DICPCG:  Solving for Ux, Initial residual = 0.769506, Final residual = 1.10817e-07, No Iterations 3
DICPCG:  Solving for Uy, Initial residual = 0, Final residual = 0, No Iterations 0
smoothSolver:  Solving for epsilon, Initial residual = 0.0329859, Final residual = 7.26696e-07, No Iterations 6
smoothSolver:  Solving for k, Initial residual = 0.0432906, Final residual = 5.5672e-07, No Iterations 8
Uncorrected Ubar = 17.5321, pressure gradient = -10177.3
Rey = 1.00145, uTau = 1.60116, nut+ = 0, nuEff+ = 1, y+ = 1.00073, u+ = 1.00073, k+ = 5.28842e-11, epsilon+ = 8.90807e-11, omega+ = 18.7161
ExecutionTime = 0.0409 s  ClockTime = 0 s

Time = 39s

DICPCG:  Solving for Ux, Initial residual = 0.728191, Final residual = 1.06272e-07, No Iterations 3
DICPCG:  Solving for Uy, Initial residual = 0, Final residual = 0, No Iterations 0
smoothSolver:  Solving for epsilon, Initial residual = 0.0237034, Final residual = 4.68608e-07, No Iterations 6
smoothSolver:  Solving for k, Initial residual = 0.0328168, Final residual = 5.05004e-07, No Iterations 8
Uncorrected Ubar = 2.64519, pressure gradient = 9989.14
Rey = 1.98777, uTau = 2.25581, nut+ = 0, nuEff+ = 1, y+ = 1.40988, u+ = 1.40988, k+ = 2.49458e-11, epsilon+ = 2.68075e-11, omega+ = 11.9403
ExecutionTime = 0.041747 s  ClockTime = 0 s

Time = 40s

DICPCG:  Solving for Ux, Initial residual = 0.755316, Final residual = 1.08795e-07, No Iterations 3
DICPCG:  Solving for Uy, Initial residual = 0, Final residual = 0, No Iterations 0
smoothSolver:  Solving for epsilon, Initial residual = 0.031932, Final residual = 7.36238e-07, No Iterations 6
smoothSolver:  Solving for k, Initial residual = 0.0419054, Final residual = 5.20519e-07, No Iterations 8
Uncorrected Ubar = 17.1821, pressure gradient = -9703.66
Rey = 0.941952, uTau = 1.55287, nut+ = 0, nuEff+ = 1, y+ = 0.970542, u+ = 0.970542, k+ = 6.21914e-11, epsilon+ = 1.11773e-10, omega+ = 19.9693
ExecutionTime = 0.042592 s  ClockTime = 0 s

Time = 41s

DICPCG:  Solving for Ux, Initial residual = 0.716855, Final residual = 1.04598e-07, No Iterations 3
DICPCG:  Solving for Uy, Initial residual = 0, Final residual = 0, No Iterations 0
smoothSolver:  Solving for epsilon, Initial residual = 0.0227139, Final residual = 4.83414e-07, No Iterations 6
smoothSolver:  Solving for k, Initial residual = 0.0319368, Final residual = 4.74706e-07, No Iterations 8
Uncorrected Ubar = 2.98696, pressure gradient = 9525.63
Rey = 1.90853, uTau = 2.21039, nut+ = 0, nuEff+ = 1, y+ = 1.3815, u+ = 1.3815, k+ = 2.89169e-11, epsilon+ = 3.21655e-11, omega+ = 12.3594
ExecutionTime = 0.043439 s  ClockTime = 0 s

Time = 42s

DICPCG:  Solving for Ux, Initial residual = 0.739579, Final residual = 1.06547e-07, No Iterations 3
DICPCG:  Solving for Uy, Initial residual = 0, Final residual = 0, No Iterations 0
smoothSolver:  Solving for epsilon, Initial residual = 0.0309838, Final residual = 7.48752e-07, No Iterations 6
smoothSolver:  Solving for k, Initial residual = 0.0407316, Final residual = 4.93291e-07, No Iterations 8
Uncorrected Ubar = 16.8483, pressure gradient = -9252.04
Rey = 0.884887, uTau = 1.50509, nut+ = 0, nuEff+ = 1, y+ = 0.940684, u+ = 0.940684, k+ = 7.34307e-11, epsilon+ = 1.40963e-10, omega+ = 21.3297
ExecutionTime = 0.044335 s  ClockTime = 0 s

Time = 43s

DICPCG:  Solving for Ux, Initial residual = 0.705359, Final residual = 1.02904e-07, No Iterations 3
DICPCG:  Solving for Uy, Initial residual = 0, Final residual = 0, No Iterations 0
smoothSolver:  Solving for epsilon, Initial residual = 0.0218222, Final residual = 5.00864e-07, No Iterations 6
smoothSolver:  Solving for k, Initial residual = 0.031182, Final residual = 4.52205e-07, No Iterations 8
Uncorrected Ubar = 3.31286, pressure gradient = 9083.66
Rey = 1.83327, uTau = 2.16637, nut+ = 0, nuEff+ = 1, y+ = 1.35398, u+ = 1.35398, k+ = 3.35926e-11, epsilon+ = 3.8667e-11, omega+ = 12.7895
ExecutionTime = 0.045383 s  ClockTime = 0 s

Time = 44s

DICPCG:  Solving for Ux, Initial residual = 0.723401, Final residual = 1.04233e-07, No Iterations 3
DICPCG:  Solving for Uy, Initial residual = 0, Final residual = 0, No Iterations 0
smoothSolver:  Solving for epsilon, Initial residual = 0.0301252, Final residual = 7.63891e-07, No Iterations 6
smoothSolver:  Solving for k, Initial residual = 0.0397219, Final residual = 4.71481e-07, No Iterations 8
Uncorrected Ubar = 16.5301, pressure gradient = -8821.4
Rey = 0.830207, uTau = 1.45785, nut+ = 0, nuEff+ = 1, y+ = 0.911157, u+ = 0.911157, k+ = 8.70516e-11, epsilon+ = 1.78702e-10, omega+ = 22.8092
ExecutionTime = 0.046396 s  ClockTime = 0 s

Time = 45s

DICPCG:  Solving for Ux, Initial residual = 0.693706, Final residual = 1.0119e-07, No Iterations 3
DICPCG:  Solving for Uy, Initial residual = 0, Final residual = 0, No Iterations 0
smoothSolver:  Solving for epsilon, Initial residual = 0.0210186, Final residual = 5.20444e-07, No Iterations 6
smoothSolver:  Solving for k, Initial residual = 0.030556, Final residual = 4.35322e-07, No Iterations 8
Uncorrected Ubar = 3.62361, pressure gradient = 8662.25
Rey = 1.76175, uTau = 2.1237, nut+ = 0, nuEff+ = 1, y+ = 1.32731, u+ = 1.32731, k+ = 3.91077e-11, epsilon+ = 4.65696e-11, omega+ = 13.2311
ExecutionTime = 0.047282 s  ClockTime = 0 s

Time = 46s

DICPCG:  Solving for Ux, Initial residual = 0.707148, Final residual = 1.01905e-07, No Iterations 3
DICPCG:  Solving for Uy, Initial residual = 0, Final residual = 0, No Iterations 0
smoothSolver:  Solving for epsilon, Initial residual = 0.0293439, Final residual = 7.81044e-07, No Iterations 6
smoothSolver:  Solving for k, Initial residual = 0.0388178, Final residual = 4.55778e-07, No Iterations 8
Uncorrected Ubar = 16.2266, pressure gradient = -8410.75
Rey = 0.77785, uTau = 1.41113, nut+ = 0, nuEff+ = 1, y+ = 0.881958, u+ = 0.881958, k+ = 1.03618e-10, epsilon+ = 2.27743e-10, omega+ = 24.4213
ExecutionTime = 0.048135 s  ClockTime = 0 s

Time = 47s

DICPCG:  Solving for Ux, Initial residual = 0.681803, Final residual = 9.94411e-08, No Iterations 3
DICPCG:  Solving for Uy, Initial residual = 0, Final residual = 0, No Iterations 0
smoothSolver:  Solving for epsilon, Initial residual = 0.0202906, Final residual = 5.41997e-07, No Iterations 6
smoothSolver:  Solving for k, Initial residual = 0.0299991, Final residual = 4.2267e-07, No Iterations 8
Uncorrected Ubar = 3.91992, pressure gradient = 8260.42
Rey = 1.69375, uTau = 2.08231, nut+ = 0, nuEff+ = 1, y+ = 1.30144, u+ = 1.30144, k+ = 4.56233e-11, epsilon+ = 5.61901e-11, omega+ = 13.6845
ExecutionTime = 0.048987 s  ClockTime = 0 s

Time = 48s

DICPCG:  Solving for Ux, Initial residual = 0.689492, Final residual = 9.93721e-08, No Iterations 3
DICPCG:  Solving for Uy, Initial residual = 0, Final residual = 0, No Iterations 0
smoothSolver:  Solving for epsilon, Initial residual = 0.0286335, Final residual = 8.00162e-07, No Iterations 6
smoothSolver:  Solving for k, Initial residual = 0.0380111, Final residual = 4.43495e-07, No Iterations 8
Uncorrected Ubar = 15.9373, pressure gradient = -8019.18
Rey = 0.72775, uTau = 1.36493, nut+ = 0, nuEff+ = 1, y+ = 0.853082, u+ = 0.853082, k+ = 1.2384e-10, epsilon+ = 2.91812e-10, omega+ = 26.1818
ExecutionTime = 0.049845 s  ClockTime = 0 s

Time = 49s

DICPCG:  Solving for Ux, Initial residual = 0.669601, Final residual = 9.76507e-08, No Iterations 3
DICPCG:  Solving for Uy, Initial residual = 0, Final residual = 0, No Iterations 0
smoothSolver:  Solving for epsilon, Initial residual = 0.01963, Final residual = 5.65668e-07, No Iterations 6
smoothSolver:  Solving for k, Initial residual = 0.0295126, Final residual = 4.1419e-07, No Iterations 8
Uncorrected Ubar = 4.20247, pressure gradient = 7877.28
Rey = 1.62907, uTau = 2.04216, nut+ = 0, nuEff+ = 1, y+ = 1.27635, u+ = 1.27635, k+ = 5.33327e-11, epsilon+ = 6.7919e-11, omega+ = 14.15
ExecutionTime = 0.051209 s  ClockTime = 0 s

Time = 50s

DICPCG:  Solving for Ux, Initial residual = 0.6719, Final residual = 9.68467e-08, No Iterations 3
DICPCG:  Solving for Uy, Initial residual = 0, Final residual = 0, No Iterations 0
smoothSolver:  Solving for epsilon, Initial residual = 0.0279845, Final residual = 8.20764e-07, No Iterations 6
smoothSolver:  Solving for k, Initial residual = 0.0373159, Final residual = 4.35262e-07, No Iterations 8
Uncorrected Ubar = 15.6614, pressure gradient = -7645.81
Rey = 0.679835, uTau = 1.31923, nut+ = 0, nuEff+ = 1, y+ = 0.824521, u+ = 0.824521, k+ = 1.48617e-10, epsilon+ = 3.75974e-10, omega+ = 28.1091
ExecutionTime = 0.052114 s  ClockTime = 0 s

Time = 51s

DICPCG:  Solving for Ux, Initial residual = 0.657258, Final residual = 9.58416e-08, No Iterations 3
DICPCG:  Solving for Uy, Initial residual = 0, Final residual = 0, No Iterations 0
smoothSolver:  Solving for epsilon, Initial residual = 0.0190305, Final residual = 5.91943e-07, No Iterations 6
smoothSolver:  Solving for k, Initial residual = 0.0291014, Final residual = 4.08444e-07, No Iterations 8
Uncorrected Ubar = 4.47188, pressure gradient = 7511.95
Rey = 1.56753, uTau = 2.00321, nut+ = 0, nuEff+ = 1, y+ = 1.25201, u+ = 1.25201, k+ = 6.24672e-11, epsilon+ = 8.22376e-11, omega+ = 14.6277
ExecutionTime = 0.053037 s  ClockTime = 0 s

Time = 52s

DICPCG:  Solving for Ux, Initial residual = 0.654387, Final residual = 9.4331e-08, No Iterations 3
DICPCG:  Solving for Uy, Initial residual = 0, Final residual = 0, No Iterations 0
smoothSolver:  Solving for epsilon, Initial residual = 0.0273962, Final residual = 8.42951e-07, No Iterations 6
smoothSolver:  Solving for k, Initial residual = 0.0367272, Final residual = 4.3018e-07, No Iterations 8
Uncorrected Ubar = 15.3983, pressure gradient = -7289.77
Rey = 0.634031, uTau = 1.27402, nut+ = 0, nuEff+ = 1, y+ = 0.796261, u+ = 0.796261, k+ = 1.7909e-10, epsilon+ = 4.87165e-10, omega+ = 30.2247
ExecutionTime = 0.053897 s  ClockTime = 0 s

Time = 53s

DICPCG:  Solving for Ux, Initial residual = 0.644785, Final residual = 9.40151e-08, No Iterations 3
DICPCG:  Solving for Uy, Initial residual = 0, Final residual = 0, No Iterations 0
smoothSolver:  Solving for epsilon, Initial residual = 0.0184865, Final residual = 6.19515e-07, No Iterations 6
smoothSolver:  Solving for k, Initial residual = 0.0287701, Final residual = 4.0616e-07, No Iterations 8
Uncorrected Ubar = 4.72877, pressure gradient = 7163.6
Rey = 1.50894, uTau = 1.96542, nut+ = 0, nuEff+ = 1, y+ = 1.22839, u+ = 1.22839, k+ = 7.33047e-11, epsilon+ = 9.97393e-11, omega+ = 15.1179
ExecutionTime = 0.054747 s  ClockTime = 0 s

Time = 54s

DICPCG:  Solving for Ux, Initial residual = 0.636439, Final residual = 9.17509e-08, No Iterations 3
DICPCG:  Solving for Uy, Initial residual = 0, Final residual = 0, No Iterations 0
smoothSolver:  Solving for epsilon, Initial residual = 0.026863, Final residual = 8.66442e-07, No Iterations 6
smoothSolver:  Solving for k, Initial residual = 0.036225, Final residual = 4.27519e-07, No Iterations 8
Uncorrected Ubar = 15.1474, pressure gradient = -6950.28
Rey = 0.590265, uTau = 1.22926, nut+ = 0, nuEff+ = 1, y+ = 0.768287, u+ = 0.768287, k+ = 2.1672e-10, epsilon+ = 6.34953e-10, omega+ = 32.5537
ExecutionTime = 0.055607 s  ClockTime = 0 s

Time = 55s

DICPCG:  Solving for Ux, Initial residual = 0.632192, Final residual = 9.21724e-08, No Iterations 3
DICPCG:  Solving for Uy, Initial residual = 0, Final residual = 0, No Iterations 0
smoothSolver:  Solving for epsilon, Initial residual = 0.0179957, Final residual = 6.48416e-07, No Iterations 6
smoothSolver:  Solving for k, Initial residual = 0.0284977, Final residual = 4.0577e-07, No Iterations 8
Uncorrected Ubar = 4.97373, pressure gradient = 6831.44
Rey = 1.45316, uTau = 1.92876, nut+ = 0, nuEff+ = 1, y+ = 1.20547, u+ = 1.20547, k+ = 8.61788e-11, epsilon+ = 1.21156e-10, omega+ = 15.6208
ExecutionTime = 0.05651 s  ClockTime = 0 s

Time = 56s

DICPCG:  Solving for Ux, Initial residual = 0.617973, Final residual = 8.90948e-08, No Iterations 3
DICPCG:  Solving for Uy, Initial residual = 0, Final residual = 0, No Iterations 0
smoothSolver:  Solving for epsilon, Initial residual = 0.0263799, Final residual = 8.91182e-07, No Iterations 6
smoothSolver:  Solving for k, Initial residual = 0.0358027, Final residual = 4.27355e-07, No Iterations 8
Uncorrected Ubar = 14.9082, pressure gradient = -6626.56
Rey = 0.54846, uTau = 1.18493, nut+ = 0, nuEff+ = 1, y+ = 0.740581, u+ = 0.740581, k+ = 2.63378e-10, epsilon+ = 8.32636e-10, omega+ = 35.1263
ExecutionTime = 0.057368 s  ClockTime = 0 s

Time = 57s

DICPCG:  Solving for Ux, Initial residual = 0.61949, Final residual = 9.03151e-08, No Iterations 3
DICPCG:  Solving for Uy, Initial residual = 0, Final residual = 0, No Iterations 0
smoothSolver:  Solving for epsilon, Initial residual = 0.0175536, Final residual = 6.78597e-07, No Iterations 6
smoothSolver:  Solving for k, Initial residual = 0.0282824, Final residual = 4.07433e-07, No Iterations 8
Uncorrected Ubar = 5.2073, pressure gradient = 6514.72
Rey = 1.40004, uTau = 1.89317, nut+ = 0, nuEff+ = 1, y+ = 1.18323, u+ = 1.18323, k+ = 1.0149e-10, epsilon+ = 1.47392e-10, omega+ = 16.1364
ExecutionTime = 0.058258 s  ClockTime = 0 s

Time = 58s

DICPCG:  Solving for Ux, Initial residual = 0.599693, Final residual = 8.64642e-08, No Iterations 3
DICPCG:  Solving for Uy, Initial residual = 0, Final residual = 0, No Iterations 0
smoothSolver:  Solving for epsilon, Initial residual = 0.0259424, Final residual = 9.16983e-07, No Iterations 6
smoothSolver:  Solving for k, Initial residual = 0.0354428, Final residual = 4.28601e-07, No Iterations 8
Uncorrected Ubar = 14.6801, pressure gradient = -6317.88
Rey = 0.508543, uTau = 1.14099, nut+ = 0, nuEff+ = 1, y+ = 0.713122, u+ = 0.713122, k+ = 3.21484e-10, epsilon+ = 1.09885e-09, omega+ = 37.9785
ExecutionTime = 0.059122 s  ClockTime = 0 s

Time = 59s

DICPCG:  Solving for Ux, Initial residual = 0.606693, Final residual = 8.84448e-08, No Iterations 3
DICPCG:  Solving for Uy, Initial residual = 0, Final residual = 0, No Iterations 0
smoothSolver:  Solving for epsilon, Initial residual = 0.0171558, Final residual = 7.10363e-07, No Iterations 6
smoothSolver:  Solving for k, Initial residual = 0.0282867, Final residual = 4.10634e-07, No Iterations 8
Uncorrected Ubar = 5.43002, pressure gradient = 6212.72
Rey = 1.34943, uTau = 1.85864, nut+ = 0, nuEff+ = 1, y+ = 1.16165, u+ = 1.16165, k+ = 1.19721e-10, epsilon+ = 1.79562e-10, omega+ = 16.665
ExecutionTime = 0.059974 s  ClockTime = 0 s

Time = 60s

DICPCG:  Solving for Ux, Initial residual = 0.581484, Final residual = 8.38428e-08, No Iterations 3
DICPCG:  Solving for Uy, Initial residual = 0, Final residual = 0, No Iterations 0
smoothSolver:  Solving for epsilon, Initial residual = 0.0255466, Final residual = 9.43772e-07, No Iterations 6
smoothSolver:  Solving for k, Initial residual = 0.0351436, Final residual = 4.31659e-07, No Iterations 8
Uncorrected Ubar = 14.4626, pressure gradient = -6023.55
Rey = 0.470439, uTau = 1.09742, nut+ = 0, nuEff+ = 1, y+ = 0.685886, u+ = 0.685886, k+ = 3.9418e-10, epsilon+ = 1.45997e-09, omega+ = 41.1534
ExecutionTime = 0.061055 s  ClockTime = 0 s

Time = 61s

DICPCG:  Solving for Ux, Initial residual = 0.593812, Final residual = 8.65634e-08, No Iterations 3
DICPCG:  Solving for Uy, Initial residual = 0, Final residual = 0, No Iterations 0
smoothSolver:  Solving for epsilon, Initial residual = 0.0167984, Final residual = 7.43025e-07, No Iterations 6
smoothSolver:  Solving for k, Initial residual = 0.0283856, Final residual = 4.14987e-07, No Iterations 8
Uncorrected Ubar = 5.64239, pressure gradient = 5924.75
Rey = 1.30121, uTau = 1.82513, nut+ = 0, nuEff+ = 1, y+ = 1.14071, u+ = 1.14071, k+ = 1.41449e-10, epsilon+ = 2.19045e-10, omega+ = 17.2064
ExecutionTime = 0.061977 s  ClockTime = 0 s

Time = 62s

DICPCG:  Solving for Ux, Initial residual = 0.562851, Final residual = 8.11594e-08, No Iterations 3
DICPCG:  Solving for Uy, Initial residual = 0, Final residual = 0, No Iterations 0
smoothSolver:  Solving for epsilon, Initial residual = 0.0251889, Final residual = 9.71432e-07, No Iterations 6
smoothSolver:  Solving for k, Initial residual = 0.0348755, Final residual = 4.35512e-07, No Iterations 8
Uncorrected Ubar = 14.2553, pressure gradient = -5742.89
Rey = 0.434077, uTau = 1.05415, nut+ = 0, nuEff+ = 1, y+ = 0.658845, u+ = 0.658845, k+ = 4.85575e-10, epsilon+ = 1.95364e-09, omega+ = 44.7039
ExecutionTime = 0.062831 s  ClockTime = 0 s

Time = 63s

DICPCG:  Solving for Ux, Initial residual = 0.580712, Final residual = 8.4651e-08, No Iterations 3
DICPCG:  Solving for Uy, Initial residual = 0, Final residual = 0, No Iterations 0
smoothSolver:  Solving for epsilon, Initial residual = 0.0164779, Final residual = 7.76563e-07, No Iterations 6
smoothSolver:  Solving for k, Initial residual = 0.0284868, Final residual = 4.20339e-07, No Iterations 8
Uncorrected Ubar = 5.84489, pressure gradient = 5650.17
Rey = 1.25525, uTau = 1.79261, nut+ = 0, nuEff+ = 1, y+ = 1.12038, u+ = 1.12038, k+ = 1.67372e-10, epsilon+ = 2.6754e-10, omega+ = 17.7609
ExecutionTime = 0.063682 s  ClockTime = 0 s

Time = 64s

DICPCG:  Solving for Ux, Initial residual = 0.544224, Final residual = 7.84759e-08, No Iterations 3
DICPCG:  Solving for Uy, Initial residual = 0, Final residual = 0, No Iterations 0
smoothSolver:  Solving for epsilon, Initial residual = 0.0248662, Final residual = 9.99877e-07, No Iterations 6
smoothSolver:  Solving for k, Initial residual = 0.0346468, Final residual = 4.40342e-07, No Iterations 8
Uncorrected Ubar = 14.0575, pressure gradient = -5475.27
Rey = 0.399384, uTau = 1.01115, nut+ = 0, nuEff+ = 1, y+ = 0.631969, u+ = 0.631969, k+ = 6.01086e-10, epsilon+ = 2.63428e-09, omega+ = 48.6948
ExecutionTime = 0.064596 s  ClockTime = 0 s

Time = 65s

DICPCG:  Solving for Ux, Initial residual = 0.567507, Final residual = 8.27239e-08, No Iterations 3
DICPCG:  Solving for Uy, Initial residual = 0, Final residual = 0, No Iterations 0
smoothSolver:  Solving for epsilon, Initial residual = 0.0161912, Final residual = 8.10813e-07, No Iterations 6
smoothSolver:  Solving for k, Initial residual = 0.0286007, Final residual = 4.26313e-07, No Iterations 8
Uncorrected Ubar = 6.03797, pressure gradient = 5388.35
Rey = 1.21145, uTau = 1.76105, nut+ = 0, nuEff+ = 1, y+ = 1.10066, u+ = 1.10066, k+ = 1.98328e-10, epsilon+ = 3.2715e-10, omega+ = 18.3283
ExecutionTime = 0.065453 s  ClockTime = 0 s

Time = 66s

DICPCG:  Solving for Ux, Initial residual = 0.525946, Final residual = 7.58421e-08, No Iterations 3
DICPCG:  Solving for Uy, Initial residual = 0, Final residual = 0, No Iterations 0
smoothSolver:  Solving for epsilon, Initial residual = 0.0245754, Final residual = 2.20233e-07, No Iterations 7
smoothSolver:  Solving for k, Initial residual = 0.034455, Final residual = 4.45898e-07, No Iterations 8
Uncorrected Ubar = 13.869, pressure gradient = -5220.09
Rey = 0.366294, uTau = 0.968355, nut+ = 0, nuEff+ = 1, y+ = 0.605222, u+ = 0.605222, k+ = 7.47912e-10, epsilon+ = 3.58146e-09, omega+ = 53.2069
ExecutionTime = 0.066349 s  ClockTime = 0 s

Time = 67s

DICPCG:  Solving for Ux, Initial residual = 0.554263, Final residual = 8.07919e-08, No Iterations 3
DICPCG:  Solving for Uy, Initial residual = 0, Final residual = 0, No Iterations 0
smoothSolver:  Solving for epsilon, Initial residual = 0.0159351, Final residual = 8.45675e-07, No Iterations 6
smoothSolver:  Solving for k, Initial residual = 0.0287207, Final residual = 4.33029e-07, No Iterations 8
Uncorrected Ubar = 6.22209, pressure gradient = 5138.7
Rey = 1.16969, uTau = 1.73043, nut+ = 0, nuEff+ = 1, y+ = 1.08152, u+ = 1.08152, k+ = 2.35326e-10, epsilon+ = 4.00471e-10, omega+ = 18.9086
ExecutionTime = 0.067707 s  ClockTime = 0 s

Time = 68s

DICPCG:  Solving for Ux, Initial residual = 0.508029, Final residual = 7.32595e-08, No Iterations 3
DICPCG:  Solving for Uy, Initial residual = 0, Final residual = 0, No Iterations 0
smoothSolver:  Solving for epsilon, Initial residual = 0.0243125, Final residual = 2.26872e-07, No Iterations 7
smoothSolver:  Solving for k, Initial residual = 0.0342946, Final residual = 4.51692e-07, No Iterations 8
Uncorrected Ubar = 13.6892, pressure gradient = -4976.76
Rey = 0.334737, uTau = 0.925703, nut+ = 0, nuEff+ = 1, y+ = 0.578565, u+ = 0.578565, k+ = 9.3571e-10, epsilon+ = 4.91317e-09, omega+ = 58.3415
ExecutionTime = 0.068682 s  ClockTime = 0 s

Time = 69s

DICPCG:  Solving for Ux, Initial residual = 0.540997, Final residual = 7.88571e-08, No Iterations 3
DICPCG:  Solving for Uy, Initial residual = 0, Final residual = 0, No Iterations 0
smoothSolver:  Solving for epsilon, Initial residual = 0.0157076, Final residual = 8.81132e-07, No Iterations 6
smoothSolver:  Solving for k, Initial residual = 0.0288401, Final residual = 4.40055e-07, No Iterations 8
Uncorrected Ubar = 6.39765, pressure gradient = 4900.64
Rey = 1.12986, uTau = 1.70072, nut+ = 0, nuEff+ = 1, y+ = 1.06295, u+ = 1.06295, k+ = 2.7958e-10, epsilon+ = 4.90707e-10, omega+ = 19.5017
ExecutionTime = 0.069622 s  ClockTime = 0 s

Time = 70s

DICPCG:  Solving for Ux, Initial residual = 0.489889, Final residual = 7.06444e-08, No Iterations 3
DICPCG:  Solving for Uy, Initial residual = 0, Final residual = 0, No Iterations 0
smoothSolver:  Solving for epsilon, Initial residual = 0.0240701, Final residual = 2.33623e-07, No Iterations 7
smoothSolver:  Solving for k, Initial residual = 0.0341605, Final residual = 4.5813e-07, No Iterations 8
Uncorrected Ubar = 13.5177, pressure gradient = -4744.75
Rey = 0.30465, uTau = 0.883121, nut+ = 0, nuEff+ = 1, y+ = 0.551951, u+ = 0.551951, k+ = 1.17758e-09, epsilon+ = 6.8071e-09, omega+ = 64.2286
ExecutionTime = 0.070518 s  ClockTime = 0 s

Time = 71s

DICPCG:  Solving for Ux, Initial residual = 0.527723, Final residual = 7.69219e-08, No Iterations 3
DICPCG:  Solving for Uy, Initial residual = 0, Final residual = 0, No Iterations 0
smoothSolver:  Solving for epsilon, Initial residual = 0.0155018, Final residual = 9.1685e-07, No Iterations 6
smoothSolver:  Solving for k, Initial residual = 0.0289607, Final residual = 4.47416e-07, No Iterations 8
Uncorrected Ubar = 6.56505, pressure gradient = 4673.65
Rey = 1.09189, uTau = 1.6719, nut+ = 0, nuEff+ = 1, y+ = 1.04493, u+ = 1.04493, k+ = 3.32555e-10, epsilon+ = 6.01818e-10, omega+ = 20.1076
ExecutionTime = 0.071372 s  ClockTime = 0 s

Time = 72s

DICPCG:  Solving for Ux, Initial residual = 0.472014, Final residual = 6.80668e-08, No Iterations 3
DICPCG:  Solving for Uy, Initial residual = 0, Final residual = 0, No Iterations 0
smoothSolver:  Solving for epsilon, Initial residual = 0.0238527, Final residual = 2.40523e-07, No Iterations 7
smoothSolver:  Solving for k, Initial residual = 0.0340493, Final residual = 4.64878e-07, No Iterations 8
Uncorrected Ubar = 13.3543, pressure gradient = -4523.51
Rey = 0.275968, uTau = 0.840523, nut+ = 0, nuEff+ = 1, y+ = 0.525327, u+ = 0.525327, k+ = 1.49152e-09, epsilon+ = 9.5357e-09, omega+ = 71.0363
ExecutionTime = 0.072225 s  ClockTime = 0 s

Time = 73s

DICPCG:  Solving for Ux, Initial residual = 0.514459, Final residual = 7.49886e-08, No Iterations 3
DICPCG:  Solving for Uy, Initial residual = 0, Final residual = 0, No Iterations 0
smoothSolver:  Solving for epsilon, Initial residual = 0.0153192, Final residual = 9.52941e-07, No Iterations 6
smoothSolver:  Solving for k, Initial residual = 0.029086, Final residual = 4.55132e-07, No Iterations 8
Uncorrected Ubar = 6.72468, pressure gradient = 4457.21
Rey = 1.05567, uTau = 1.64393, nut+ = 0, nuEff+ = 1, y+ = 1.02746, u+ = 1.02746, k+ = 3.96012e-10, epsilon+ = 7.38696e-10, omega+ = 20.726
ExecutionTime = 0.07308 s  ClockTime = 0 s

Time = 74s

DICPCG:  Solving for Ux, Initial residual = 0.454591, Final residual = 6.55542e-08, No Iterations 3
DICPCG:  Solving for Uy, Initial residual = 0, Final residual = 0, No Iterations 0
smoothSolver:  Solving for epsilon, Initial residual = 0.0236545, Final residual = 2.47515e-07, No Iterations 7
smoothSolver:  Solving for k, Initial residual = 0.0339591, Final residual = 4.72032e-07, No Iterations 8
Uncorrected Ubar = 13.1984, pressure gradient = -4312.56
Rey = 0.248633, uTau = 0.79781, nut+ = 0, nuEff+ = 1, y+ = 0.498631, u+ = 0.498631, k+ = 1.9026e-09, epsilon+ = 1.35253e-08, omega+ = 78.9873
ExecutionTime = 0.073936 s  ClockTime = 0 s

Time = 75s

DICPCG:  Solving for Ux, Initial residual = 0.50122, Final residual = 7.30593e-08, No Iterations 3
DICPCG:  Solving for Uy, Initial residual = 0, Final residual = 0, No Iterations 0
smoothSolver:  Solving for epsilon, Initial residual = 0.0151574, Final residual = 9.89293e-07, No Iterations 6
smoothSolver:  Solving for k, Initial residual = 0.0292161, Final residual = 4.63044e-07, No Iterations 8
Uncorrected Ubar = 6.87688, pressure gradient = 4250.82
Rey = 1.02111, uTau = 1.6168, nut+ = 0, nuEff+ = 1, y+ = 1.0105, u+ = 1.0105, k+ = 4.72075e-10, epsilon+ = 9.0738e-10, omega+ = 21.3568
ExecutionTime = 0.0749 s  ClockTime = 0 s

Time = 76s

DICPCG:  Solving for Ux, Initial residual = 0.437625, Final residual = 6.31071e-08, No Iterations 3
DICPCG:  Solving for Uy, Initial residual = 0, Final residual = 0, No Iterations 0
smoothSolver:  Solving for epsilon, Initial residual = 0.023474, Final residual = 2.54588e-07, No Iterations 7
smoothSolver:  Solving for k, Initial residual = 0.0338861, Final residual = 4.79411e-07, No Iterations 8
Uncorrected Ubar = 13.0498, pressure gradient = -4111.41
Rey = 0.222584, uTau = 0.754861, nut+ = 0, nuEff+ = 1, y+ = 0.471788, u+ = 0.471788, k+ = 2.44636e-09, epsilon+ = 1.94592e-08, omega+ = 88.3819
ExecutionTime = 0.075766 s  ClockTime = 0 s

Time = 77s

DICPCG:  Solving for Ux, Initial residual = 0.488022, Final residual = 7.11365e-08, No Iterations 3
DICPCG:  Solving for Uy, Initial residual = 0, Final residual = 0, No Iterations 0
smoothSolver:  Solving for epsilon, Initial residual = 0.0150858, Final residual = 2.25716e-07, No Iterations 7
smoothSolver:  Solving for k, Initial residual = 0.029349, Final residual = 4.71223e-07, No Iterations 8
Uncorrected Ubar = 7.02202, pressure gradient = 4054.03
Rey = 0.988146, uTau = 1.59049, nut+ = 0, nuEff+ = 1, y+ = 0.994055, u+ = 0.994055, k+ = 5.63304e-10, epsilon+ = 1.11533e-09, omega+ = 21.9997
ExecutionTime = 0.076815 s  ClockTime = 0 s

Time = 78s

DICPCG:  Solving for Ux, Initial residual = 0.42073, Final residual = 6.06699e-08, No Iterations 3
DICPCG:  Solving for Uy, Initial residual = 0, Final residual = 0, No Iterations 0
smoothSolver:  Solving for epsilon, Initial residual = 0.0233125, Final residual = 2.61742e-07, No Iterations 7
smoothSolver:  Solving for k, Initial residual = 0.0338291, Final residual = 4.8697e-07, No Iterations 8
Uncorrected Ubar = 12.908, pressure gradient = -3919.61
Rey = 0.197766, uTau = 0.711534, nut+ = 0, nuEff+ = 1, y+ = 0.444709, u+ = 0.444709, k+ = 3.17419e-09, epsilon+ = 2.84636e-08, omega+ = 99.6357
ExecutionTime = 0.078019 s  ClockTime = 0 s

Time = 79s

DICPCG:  Solving for Ux, Initial residual = 0.474882, Final residual = 6.92223e-08, No Iterations 3
DICPCG:  Solving for Uy, Initial residual = 0, Final residual = 0, No Iterations 0
smoothSolver:  Solving for epsilon, Initial residual = 0.0151219, Final residual = 2.33837e-07, No Iterations 7
smoothSolver:  Solving for k, Initial residual = 0.029484, Final residual = 4.79493e-07, No Iterations 8
Uncorrected Ubar = 7.1604, pressure gradient = 3866.37
Rey = 0.95669, uTau = 1.56497, nut+ = 0, nuEff+ = 1, y+ = 0.978105, u+ = 0.978105, k+ = 6.72783e-10, epsilon+ = 1.37174e-09, omega+ = 22.6545
ExecutionTime = 0.079027 s  ClockTime = 0 s

Time = 80s

DICPCG:  Solving for Ux, Initial residual = 0.404064, Final residual = 5.82654e-08, No Iterations 3
DICPCG:  Solving for Uy, Initial residual = 0, Final residual = 0, No Iterations 0
smoothSolver:  Solving for epsilon, Initial residual = 0.0231693, Final residual = 2.68995e-07, No Iterations 7
smoothSolver:  Solving for k, Initial residual = 0.0337861, Final residual = 4.94722e-07, No Iterations 8
Uncorrected Ubar = 12.7729, pressure gradient = -3736.73
Rey = 0.174124, uTau = 0.667651, nut+ = 0, nuEff+ = 1, y+ = 0.417282, u+ = 0.417282, k+ = 4.16228e-09, epsilon+ = 4.2458e-08, omega+ = 113.341
ExecutionTime = 0.080246 s  ClockTime = 0 s

Time = 81s

DICPCG:  Solving for Ux, Initial residual = 0.461815, Final residual = 6.73191e-08, No Iterations 3
DICPCG:  Solving for Uy, Initial residual = 0, Final residual = 0, No Iterations 0
smoothSolver:  Solving for epsilon, Initial residual = 0.0151657, Final residual = 2.42039e-07, No Iterations 7
smoothSolver:  Solving for k, Initial residual = 0.0296213, Final residual = 4.87898e-07, No Iterations 8
Uncorrected Ubar = 7.29236, pressure gradient = 3687.44
Rey = 0.926672, uTau = 1.54022, nut+ = 0, nuEff+ = 1, y+ = 0.962638, u+ = 0.962638, k+ = 8.0423e-10, epsilon+ = 1.68798e-09, omega+ = 23.3209
ExecutionTime = 0.081173 s  ClockTime = 0 s

Time = 82s

DICPCG:  Solving for Ux, Initial residual = 0.387903, Final residual = 5.59336e-08, No Iterations 3
DICPCG:  Solving for Uy, Initial residual = 0, Final residual = 0, No Iterations 0
smoothSolver:  Solving for epsilon, Initial residual = 0.0230428, Final residual = 2.76331e-07, No Iterations 7
smoothSolver:  Solving for k, Initial residual = 0.0337559, Final residual = 5.02557e-07, No Iterations 8
Uncorrected Ubar = 12.644, pressure gradient = -3562.34
Rey = 0.151606, uTau = 0.622985, nut+ = 0, nuEff+ = 1, y+ = 0.389366, u+ = 0.389366, k+ = 5.52697e-09, epsilon+ = 6.48492e-08, omega+ = 130.369
ExecutionTime = 0.082026 s  ClockTime = 0 s

Time = 83s

DICPCG:  Solving for Ux, Initial residual = 0.448721, Final residual = 6.54122e-08, No Iterations 3
DICPCG:  Solving for Uy, Initial residual = 0, Final residual = 0, No Iterations 0
smoothSolver:  Solving for epsilon, Initial residual = 0.0152165, Final residual = 2.50309e-07, No Iterations 7
smoothSolver:  Solving for k, Initial residual = 0.0297566, Final residual = 4.96325e-07, No Iterations 8
Uncorrected Ubar = 7.41819, pressure gradient = 3516.82
Rey = 0.898022, uTau = 1.51622, nut+ = 0, nuEff+ = 1, y+ = 0.94764, u+ = 0.94764, k+ = 9.62127e-10, epsilon+ = 2.07806e-09, omega+ = 23.9985
ExecutionTime = 0.082877 s  ClockTime = 0 s

Time = 84s

DICPCG:  Solving for Ux, Initial residual = 0.372259, Final residual = 5.36762e-08, No Iterations 3
DICPCG:  Solving for Uy, Initial residual = 0, Final residual = 0, No Iterations 0
smoothSolver:  Solving for epsilon, Initial residual = 0.022932, Final residual = 2.83739e-07, No Iterations 7
smoothSolver:  Solving for k, Initial residual = 0.033737, Final residual = 5.1052e-07, No Iterations 8
Uncorrected Ubar = 12.5212, pressure gradient = -3396.06
Rey = 0.130161, uTau = 0.577246, nut+ = 0, nuEff+ = 1, y+ = 0.360779, u+ = 0.360779, k+ = 7.45275e-09, epsilon+ = 1.01996e-07, omega+ = 152.064
ExecutionTime = 0.084206 s  ClockTime = 0 s

Time = 85s

DICPCG:  Solving for Ux, Initial residual = 0.435706, Final residual = 6.35171e-08, No Iterations 3
DICPCG:  Solving for Uy, Initial residual = 0, Final residual = 0, No Iterations 0
smoothSolver:  Solving for epsilon, Initial residual = 0.0152735, Final residual = 2.58635e-07, No Iterations 7
smoothSolver:  Solving for k, Initial residual = 0.0298802, Final residual = 5.04567e-07, No Iterations 8
Uncorrected Ubar = 7.53816, pressure gradient = 3354.13
Rey = 0.870675, uTau = 1.49296, nut+ = 0, nuEff+ = 1, y+ = 0.9331, u+ = 0.9331, k+ = 1.15188e-09, epsilon+ = 2.55927e-09, omega+ = 24.687
ExecutionTime = 0.085165 s  ClockTime = 0 s

Time = 86s

DICPCG:  Solving for Ux, Initial residual = 0.357003, Final residual = 5.14746e-08, No Iterations 3
DICPCG:  Solving for Uy, Initial residual = 0, Final residual = 0, No Iterations 0
smoothSolver:  Solving for epsilon, Initial residual = 0.0228355, Final residual = 2.9121e-07, No Iterations 7
smoothSolver:  Solving for k, Initial residual = 0.0337249, Final residual = 5.18472e-07, No Iterations 8
Uncorrected Ubar = 12.404, pressure gradient = -3237.51
Rey = 0.109743, uTau = 0.530039, nut+ = 0, nuEff+ = 1, y+ = 0.331274, u+ = 0.331274, k+ = 1.02466e-08, epsilon+ = 1.66549e-07, omega+ = 180.601
ExecutionTime = 0.086075 s  ClockTime = 0 s

Time = 87s

DICPCG:  Solving for Ux, Initial residual = 0.422814, Final residual = 6.16401e-08, No Iterations 3
DICPCG:  Solving for Uy, Initial residual = 0, Final residual = 0, No Iterations 0
smoothSolver:  Solving for epsilon, Initial residual = 0.0153361, Final residual = 2.67006e-07, No Iterations 7
smoothSolver:  Solving for k, Initial residual = 0.0299975, Final residual = 5.1274e-07, No Iterations 8
Uncorrected Ubar = 7.65257, pressure gradient = 3199
Rey = 0.84457, uTau = 1.47041, nut+ = 0, nuEff+ = 1, y+ = 0.919005, u+ = 0.919005, k+ = 1.38e-09, epsilon+ = 3.15292e-09, omega+ = 25.3859
ExecutionTime = 0.086947 s  ClockTime = 0 s

Time = 88s

DICPCG:  Solving for Ux, Initial residual = 0.341981, Final residual = 4.93067e-08, No Iterations 3
DICPCG:  Solving for Uy, Initial residual = 0, Final residual = 0, No Iterations 0
smoothSolver:  Solving for epsilon, Initial residual = 0.0227523, Final residual = 2.98736e-07, No Iterations 7
smoothSolver:  Solving for k, Initial residual = 0.0337108, Final residual = 5.2629e-07, No Iterations 8
Uncorrected Ubar = 12.2923, pressure gradient = -3086.33
Rey = 0.0903033, uTau = 0.480808, nut+ = 0, nuEff+ = 1, y+ = 0.300505, u+ = 0.300505, k+ = 1.44524e-08, epsilon+ = 2.85849e-07, omega+ = 219.763
ExecutionTime = 0.087801 s  ClockTime = 0 s

Time = 89s

DICPCG:  Solving for Ux, Initial residual = 0.41006, Final residual = 5.97833e-08, No Iterations 3
DICPCG:  Solving for Uy, Initial residual = 0, Final residual = 0, No Iterations 0
smoothSolver:  Solving for epsilon, Initial residual = 0.0154037, Final residual = 2.75416e-07, No Iterations 7
smoothSolver:  Solving for k, Initial residual = 0.030109, Final residual = 5.20787e-07, No Iterations 8
Uncorrected Ubar = 7.76165, pressure gradient = 3051.07
Rey = 0.819646, uTau = 1.44855, nut+ = 0, nuEff+ = 1, y+ = 0.905343, u+ = 0.905343, k+ = 1.65434e-09, epsilon+ = 3.88527e-09, omega+ = 26.0948
ExecutionTime = 0.088654 s  ClockTime = 0 s

Time = 90s

DICPCG:  Solving for Ux, Initial residual = 0.327501, Final residual = 4.72169e-08, No Iterations 3
DICPCG:  Solving for Uy, Initial residual = 0, Final residual = 0, No Iterations 0
smoothSolver:  Solving for epsilon, Initial residual = 0.0226815, Final residual = 3.06309e-07, No Iterations 7
smoothSolver:  Solving for k, Initial residual = 0.0337048, Final residual = 5.34127e-07, No Iterations 8
Uncorrected Ubar = 12.1858, pressure gradient = -2942.18
Rey = 0.0717991, uTau = 0.428726, nut+ = 0, nuEff+ = 1, y+ = 0.267954, u+ = 0.267954, k+ = 2.11216e-08, epsilon+ = 5.2607e-07, omega+ = 276.741
ExecutionTime = 0.089505 s  ClockTime = 0 s

Time = 91s

DICPCG:  Solving for Ux, Initial residual = 0.397458, Final residual = 5.79487e-08, No Iterations 3
DICPCG:  Solving for Uy, Initial residual = 0, Final residual = 0, No Iterations 0
smoothSolver:  Solving for epsilon, Initial residual = 0.0154758, Final residual = 2.83856e-07, No Iterations 7
smoothSolver:  Solving for k, Initial residual = 0.0302207, Final residual = 5.28832e-07, No Iterations 8
Uncorrected Ubar = 7.86567, pressure gradient = 2910.02
Rey = 0.795848, uTau = 1.42737, nut+ = 0, nuEff+ = 1, y+ = 0.892103, u+ = 0.892103, k+ = 1.98438e-09, epsilon+ = 4.78868e-09, omega+ = 26.8132
ExecutionTime = 0.090357 s  ClockTime = 0 s

Time = 92s

DICPCG:  Solving for Ux, Initial residual = 0.31355, Final residual = 4.52033e-08, No Iterations 3
DICPCG:  Solving for Uy, Initial residual = 0, Final residual = 0, No Iterations 0
smoothSolver:  Solving for epsilon, Initial residual = 0.0226222, Final residual = 3.13925e-07, No Iterations 7
smoothSolver:  Solving for k, Initial residual = 0.0337019, Final residual = 5.41881e-07, No Iterations 8
Uncorrected Ubar = 12.0842, pressure gradient = -2804.72
Rey = 0.0541877, uTau = 0.372452, nut+ = 0, nuEff+ = 1, y+ = 0.232782, u+ = 0.232782, k+ = 3.25568e-08, epsilon+ = 1.07568e-06, omega+ = 367.114
ExecutionTime = 0.091263 s  ClockTime = 0 s

Time = 93s

DICPCG:  Solving for Ux, Initial residual = 0.379695, Final residual = 5.53618e-08, No Iterations 3
DICPCG:  Solving for Uy, Initial residual = 0, Final residual = 0, No Iterations 0
smoothSolver:  Solving for epsilon, Initial residual = 0.0155519, Final residual = 2.9232e-07, No Iterations 7
smoothSolver:  Solving for k, Initial residual = 0.0303321, Final residual = 5.36842e-07, No Iterations 8
Uncorrected Ubar = 7.96485, pressure gradient = 2775.52
Rey = 0.773123, uTau = 1.40684, nut+ = 0, nuEff+ = 1, y+ = 0.879274, u+ = 0.879274, k+ = 2.38154e-09, epsilon+ = 5.90302e-09, omega+ = 27.5407
ExecutionTime = 0.092129 s  ClockTime = 0 s

Time = 94s

DICPCG:  Solving for Ux, Initial residual = 0.300117, Final residual = 4.32644e-08, No Iterations 3
DICPCG:  Solving for Uy, Initial residual = 0, Final residual = 0, No Iterations 0
smoothSolver:  Solving for epsilon, Initial residual = 0.0225736, Final residual = 3.21577e-07, No Iterations 7
smoothSolver:  Solving for k, Initial residual = 0.0336867, Final residual = 5.4933e-07, No Iterations 8
Uncorrected Ubar = 11.9873, pressure gradient = -2673.66
Rey = 0.0374283, uTau = 0.309542, nut+ = 0, nuEff+ = 1, y+ = 0.193464, u+ = 0.193464, k+ = 5.48918e-08, epsilon+ = 2.62867e-06, omega+ = 532.091
ExecutionTime = 0.093391 s  ClockTime = 0 s

Time = 95s

DICPCG:  Solving for Ux, Initial residual = 0.360518, Final residual = 5.25687e-08, No Iterations 3
DICPCG:  Solving for Uy, Initial residual = 0, Final residual = 0, No Iterations 0
smoothSolver:  Solving for epsilon, Initial residual = 0.0156316, Final residual = 3.00801e-07, No Iterations 7
smoothSolver:  Solving for k, Initial residual = 0.0304343, Final residual = 5.44648e-07, No Iterations 8
Uncorrected Ubar = 8.05943, pressure gradient = 2647.27
Rey = 0.75142, uTau = 1.38695, nut+ = 0, nuEff+ = 1, y+ = 0.866845, u+ = 0.866845, k+ = 2.85958e-09, epsilon+ = 7.27732e-09, omega+ = 28.2766
ExecutionTime = 0.094306 s  ClockTime = 0 s

Time = 96s

DICPCG:  Solving for Ux, Initial residual = 0.287038, Final residual = 4.13765e-08, No Iterations 3
DICPCG:  Solving for Uy, Initial residual = 0, Final residual = 0, No Iterations 0
smoothSolver:  Solving for epsilon, Initial residual = 0.0225349, Final residual = 3.29257e-07, No Iterations 7
smoothSolver:  Solving for k, Initial residual = 0.0336711, Final residual = 5.5663e-07, No Iterations 8
Uncorrected Ubar = 11.895, pressure gradient = -2548.69
Rey = 0.0214821, uTau = 0.234508, nut+ = 0, nuEff+ = 1, y+ = 0.146568, u+ = 0.146568, k+ = 1.11493e-07, epsilon+ = 9.31241e-06, omega+ = 928.05
ExecutionTime = 0.095166 s  ClockTime = 0 s

Time = 97s

DICPCG:  Solving for Ux, Initial residual = 0.341768, Final residual = 4.98377e-08, No Iterations 3
DICPCG:  Solving for Uy, Initial residual = 0, Final residual = 0, No Iterations 0
smoothSolver:  Solving for epsilon, Initial residual = 0.0157146, Final residual = 3.09291e-07, No Iterations 7
smoothSolver:  Solving for k, Initial residual = 0.0305333, Final residual = 5.52366e-07, No Iterations 8
Uncorrected Ubar = 8.14961, pressure gradient = 2524.97
Rey = 0.730691, uTau = 1.36769, nut+ = 0, nuEff+ = 1, y+ = 0.854805, u+ = 0.854805, k+ = 3.43511e-09, epsilon+ = 8.97196e-09, omega+ = 29.0205
ExecutionTime = 0.096101 s  ClockTime = 0 s

Time = 98s

DICPCG:  Solving for Ux, Initial residual = 0.274345, Final residual = 3.95443e-08, No Iterations 3
DICPCG:  Solving for Uy, Initial residual = 0, Final residual = 0, No Iterations 0
smoothSolver:  Solving for epsilon, Initial residual = 0.0224995, Final residual = 3.36874e-07, No Iterations 7
smoothSolver:  Solving for k, Initial residual = 0.0336618, Final residual = 5.63904e-07, No Iterations 8
Uncorrected Ubar = 11.8069, pressure gradient = -2429.52
Rey = 0.00631181, uTau = 0.127115, nut+ = 0, nuEff+ = 1, y+ = 0.0794469, u+ = 0.0794469, k+ = 4.42814e-07, epsilon+ = 0.000126007, omega+ = 3161.78
ExecutionTime = 0.097 s  ClockTime = 0 s

Time = 99s

DICPCG:  Solving for Ux, Initial residual = 0.323754, Final residual = 4.7214e-08, No Iterations 3
DICPCG:  Solving for Uy, Initial residual = 0, Final residual = 0, No Iterations 0
smoothSolver:  Solving for epsilon, Initial residual = 0.0157963, Final residual = 3.17702e-07, No Iterations 7
smoothSolver:  Solving for k, Initial residual = 0.0306318, Final residual = 5.6002e-07, No Iterations 8
Uncorrected Ubar = 8.2356, pressure gradient = 2408.36
Rey = 0.71089, uTau = 1.34903, nut+ = 0, nuEff+ = 1, y+ = 0.843143, u+ = 0.843143, k+ = 4.12814e-09, epsilon+ = 1.10612e-08, omega+ = 29.7717
ExecutionTime = 0.097917 s  ClockTime = 0 s

Time = 100s

DICPCG:  Solving for Ux, Initial residual = 0.262163, Final residual = 3.77857e-08, No Iterations 3
DICPCG:  Solving for Uy, Initial residual = 0, Final residual = 0, No Iterations 0
smoothSolver:  Solving for epsilon, Initial residual = 0.0224727, Final residual = 3.44506e-07, No Iterations 7
smoothSolver:  Solving for k, Initial residual = 0.0336582, Final residual = 5.71142e-07, No Iterations 8
Uncorrected Ubar = 11.723, pressure gradient = -2315.9
Rey = 0.00811814, uTau = 0.144161, nut+ = 0, nuEff+ = 1, y+ = 0.0901007, u+ = 0.0901007, k+ = 4.02146e-07, epsilon+ = 8.90582e-05, omega+ = 2460.63
ExecutionTime = 0.101878 s  ClockTime = 0 s

Time = 101s

DICPCG:  Solving for Ux, Initial residual = 0.306507, Final residual = 4.47019e-08, No Iterations 3
DICPCG:  Solving for Uy, Initial residual = 0, Final residual = 0, No Iterations 0
smoothSolver:  Solving for epsilon, Initial residual = 0.0158806, Final residual = 3.2611e-07, No Iterations 7
smoothSolver:  Solving for k, Initial residual = 0.0307298, Final residual = 5.67622e-07, No Iterations 8
Uncorrected Ubar = 8.31759, pressure gradient = 2297.16
Rey = 0.691973, uTau = 1.33096, nut+ = 0, nuEff+ = 1, y+ = 0.831849, u+ = 0.831849, k+ = 4.96281e-09, epsilon+ = 1.36362e-08, omega+ = 30.5296
ExecutionTime = 0.102921 s  ClockTime = 0 s

Time = 102s

DICPCG:  Solving for Ux, Initial residual = 0.250475, Final residual = 3.60986e-08, No Iterations 3
DICPCG:  Solving for Uy, Initial residual = 0, Final residual = 0, No Iterations 0
smoothSolver:  Solving for epsilon, Initial residual = 0.0224539, Final residual = 3.5215e-07, No Iterations 7
smoothSolver:  Solving for k, Initial residual = 0.0336598, Final residual = 5.78335e-07, No Iterations 8
Uncorrected Ubar = 11.6429, pressure gradient = -2207.56
Rey = 0.0218419, uTau = 0.236464, nut+ = 0, nuEff+ = 1, y+ = 0.14779, u+ = 0.14779, k+ = 1.74749e-07, epsilon+ = 1.43969e-05, omega+ = 915.399
ExecutionTime = 0.1038 s  ClockTime = 0 s

Time = 103s

DICPCG:  Solving for Ux, Initial residual = 0.290156, Final residual = 4.23204e-08, No Iterations 3
DICPCG:  Solving for Uy, Initial residual = 0, Final residual = 0, No Iterations 0
smoothSolver:  Solving for epsilon, Initial residual = 0.0159672, Final residual = 3.3451e-07, No Iterations 7
smoothSolver:  Solving for k, Initial residual = 0.030827, Final residual = 5.75158e-07, No Iterations 8
Uncorrected Ubar = 8.39577, pressure gradient = 2191.13
Rey = 0.6739, uTau = 1.31346, nut+ = 0, nuEff+ = 1, y+ = 0.820914, u+ = 0.820914, k+ = 5.96822e-09, epsilon+ = 1.68091e-08, omega+ = 31.2937
ExecutionTime = 0.104703 s  ClockTime = 0 s

Time = 104s

DICPCG:  Solving for Ux, Initial residual = 0.239267, Final residual = 3.44806e-08, No Iterations 3
DICPCG:  Solving for Uy, Initial residual = 0, Final residual = 0, No Iterations 0
smoothSolver:  Solving for epsilon, Initial residual = 0.0224411, Final residual = 3.5978e-07, No Iterations 7
smoothSolver:  Solving for k, Initial residual = 0.0336662, Final residual = 5.85491e-07, No Iterations 8
Uncorrected Ubar = 11.5666, pressure gradient = -2104.25
Rey = 0.034892, uTau = 0.29887, nut+ = 0, nuEff+ = 1, y+ = 0.186794, u+ = 0.186794, k+ = 1.28004e-07, epsilon+ = 6.60723e-06, omega+ = 573.524
ExecutionTime = 0.105579 s  ClockTime = 0 s

Time = 105s

DICPCG:  Solving for Ux, Initial residual = 0.274628, Final residual = 4.00589e-08, No Iterations 3
DICPCG:  Solving for Uy, Initial residual = 0, Final residual = 0, No Iterations 0
smoothSolver:  Solving for epsilon, Initial residual = 0.0160545, Final residual = 3.42872e-07, No Iterations 7
smoothSolver:  Solving for k, Initial residual = 0.0309237, Final residual = 5.82629e-07, No Iterations 8
Uncorrected Ubar = 8.47032, pressure gradient = 2090.03
Rey = 0.656631, uTau = 1.29652, nut+ = 0, nuEff+ = 1, y+ = 0.810328, u+ = 0.810328, k+ = 7.17942e-09, epsilon+ = 2.07175e-08, omega+ = 32.0631
ExecutionTime = 0.106746 s  ClockTime = 0 s

Time = 106s

DICPCG:  Solving for Ux, Initial residual = 0.228468, Final residual = 3.29217e-08, No Iterations 3
DICPCG:  Solving for Uy, Initial residual = 0, Final residual = 0, No Iterations 0
smoothSolver:  Solving for epsilon, Initial residual = 0.0224313, Final residual = 3.67351e-07, No Iterations 7
smoothSolver:  Solving for k, Initial residual = 0.0336771, Final residual = 5.92596e-07, No Iterations 8
Uncorrected Ubar = 11.4938, pressure gradient = -2005.75
Rey = 0.0472996, uTau = 0.347975, nut+ = 0, nuEff+ = 1, y+ = 0.217485, u+ = 0.217485, k+ = 1.10587e-07, epsilon+ = 4.2143e-06, omega+ = 423.427
ExecutionTime = 0.107715 s  ClockTime = 0 s

Time = 107s

DICPCG:  Solving for Ux, Initial residual = 0.259991, Final residual = 3.79271e-08, No Iterations 3
DICPCG:  Solving for Uy, Initial residual = 0, Final residual = 0, No Iterations 0
smoothSolver:  Solving for epsilon, Initial residual = 0.0163448, Final residual = 3.51163e-07, No Iterations 7
smoothSolver:  Solving for k, Initial residual = 0.0310197, Final residual = 5.90037e-07, No Iterations 8
Uncorrected Ubar = 8.54141, pressure gradient = 1993.62
Rey = 0.640128, uTau = 1.28013, nut+ = 0, nuEff+ = 1, y+ = 0.80008, u+ = 0.80008, k+ = 8.63869e-09, epsilon+ = 2.55305e-08, omega+ = 32.8374
ExecutionTime = 0.10878 s  ClockTime = 0 s

Time = 108s

DICPCG:  Solving for Ux, Initial residual = 0.217958, Final residual = 3.14045e-08, No Iterations 3
DICPCG:  Solving for Uy, Initial residual = 0, Final residual = 0, No Iterations 0
smoothSolver:  Solving for epsilon, Initial residual = 0.022428, Final residual = 3.74923e-07, No Iterations 7
smoothSolver:  Solving for k, Initial residual = 0.033692, Final residual = 5.99653e-07, No Iterations 8
Uncorrected Ubar = 11.4243, pressure gradient = -1911.83
Rey = 0.0590945, uTau = 0.38895, nut+ = 0, nuEff+ = 1, y+ = 0.243094, u+ = 0.243094, k+ = 1.03748e-07, epsilon+ = 3.16702e-06, omega+ = 339.178
ExecutionTime = 0.109694 s  ClockTime = 0 s

Time = 109s

DICPCG:  Solving for Ux, Initial residual = 0.246023, Final residual = 3.58925e-08, No Iterations 3
DICPCG:  Solving for Uy, Initial residual = 0, Final residual = 0, No Iterations 0
smoothSolver:  Solving for epsilon, Initial residual = 0.016661, Final residual = 3.59435e-07, No Iterations 7
smoothSolver:  Solving for k, Initial residual = 0.031115, Final residual = 5.97377e-07, No Iterations 8
Uncorrected Ubar = 8.60919, pressure gradient = 1901.69
Rey = 0.624356, uTau = 1.26426, nut+ = 0, nuEff+ = 1, y+ = 0.790162, u+ = 0.790162, k+ = 1.0397e-08, epsilon+ = 3.14552e-08, omega+ = 33.6157
ExecutionTime = 0.110558 s  ClockTime = 0 s

Time = 110s

DICPCG:  Solving for Ux, Initial residual = 0.207906, Final residual = 2.99535e-08, No Iterations 3
DICPCG:  Solving for Uy, Initial residual = 0, Final residual = 0, No Iterations 0
smoothSolver:  Solving for epsilon, Initial residual = 0.0224308, Final residual = 3.82493e-07, No Iterations 7
smoothSolver:  Solving for k, Initial residual = 0.0337108, Final residual = 6.06663e-07, No Iterations 8
Uncorrected Ubar = 11.3582, pressure gradient = -1822.27
Rey = 0.0703052, uTau = 0.424242, nut+ = 0, nuEff+ = 1, y+ = 0.265151, u+ = 0.265151, k+ = 1.02292e-07, epsilon+ = 2.6266e-06, omega+ = 285.306
ExecutionTime = 0.111418 s  ClockTime = 0 s

Time = 111s

DICPCG:  Solving for Ux, Initial residual = 0.232838, Final residual = 3.39722e-08, No Iterations 3
DICPCG:  Solving for Uy, Initial residual = 0, Final residual = 0, No Iterations 0
smoothSolver:  Solving for epsilon, Initial residual = 0.0169658, Final residual = 3.67685e-07, No Iterations 7
smoothSolver:  Solving for k, Initial residual = 0.0312097, Final residual = 6.04652e-07, No Iterations 8
Uncorrected Ubar = 8.67382, pressure gradient = 1814.03
Rey = 0.609281, uTau = 1.2489, nut+ = 0, nuEff+ = 1, y+ = 0.780564, u+ = 0.780564, k+ = 1.25157e-08, epsilon+ = 3.87458e-08, omega+ = 34.3975
ExecutionTime = 0.112332 s  ClockTime = 0 s

Time = 112s

DICPCG:  Solving for Ux, Initial residual = 0.198295, Final residual = 2.85661e-08, No Iterations 3
DICPCG:  Solving for Uy, Initial residual = 0, Final residual = 0, No Iterations 0
smoothSolver:  Solving for epsilon, Initial residual = 0.0224392, Final residual = 3.90059e-07, No Iterations 7
smoothSolver:  Solving for k, Initial residual = 0.0337331, Final residual = 6.13621e-07, No Iterations 8
Uncorrected Ubar = 11.295, pressure gradient = -1736.88
Rey = 0.0809589, uTau = 0.455252, nut+ = 0, nuEff+ = 1, y+ = 0.284533, u+ = 0.284533, k+ = 1.04278e-07, epsilon+ = 2.32688e-06, omega+ = 247.936
ExecutionTime = 0.113194 s  ClockTime = 0 s

Time = 113s

DICPCG:  Solving for Ux, Initial residual = 0.220413, Final residual = 3.21625e-08, No Iterations 3
DICPCG:  Solving for Uy, Initial residual = 0, Final residual = 0, No Iterations 0
smoothSolver:  Solving for epsilon, Initial residual = 0.0172598, Final residual = 3.75912e-07, No Iterations 7
smoothSolver:  Solving for k, Initial residual = 0.031338, Final residual = 6.11863e-07, No Iterations 8
Uncorrected Ubar = 8.73545, pressure gradient = 1730.44
Rey = 0.59487, uTau = 1.23404, nut+ = 0, nuEff+ = 1, y+ = 0.771278, u+ = 0.771278, k+ = 1.50688e-08, epsilon+ = 4.77135e-08, omega+ = 35.182
ExecutionTime = 0.114049 s  ClockTime = 0 s

Time = 114s

DICPCG:  Solving for Ux, Initial residual = 0.189108, Final residual = 2.72399e-08, No Iterations 3
DICPCG:  Solving for Uy, Initial residual = 0, Final residual = 0, No Iterations 0
smoothSolver:  Solving for epsilon, Initial residual = 0.0224531, Final residual = 3.97622e-07, No Iterations 7
smoothSolver:  Solving for k, Initial residual = 0.0337588, Final residual = 6.20532e-07, No Iterations 8
Uncorrected Ubar = 11.2349, pressure gradient = -1655.45
Rey = 0.0910815, uTau = 0.482875, nut+ = 0, nuEff+ = 1, y+ = 0.301797, u+ = 0.301797, k+ = 1.08884e-07, epsilon+ = 2.16108e-06, omega+ = 220.528
ExecutionTime = 0.11491 s  ClockTime = 0 s

Time = 115s

DICPCG:  Solving for Ux, Initial residual = 0.208699, Final residual = 3.04563e-08, No Iterations 3
DICPCG:  Solving for Uy, Initial residual = 0, Final residual = 0, No Iterations 0
smoothSolver:  Solving for epsilon, Initial residual = 0.0175438, Final residual = 3.84115e-07, No Iterations 7
smoothSolver:  Solving for k, Initial residual = 0.031504, Final residual = 6.19014e-07, No Iterations 8
Uncorrected Ubar = 8.79421, pressure gradient = 1650.74
Rey = 0.581093, uTau = 1.21967, nut+ = 0, nuEff+ = 1, y+ = 0.762294, u+ = 0.762294, k+ = 1.81455e-08, epsilon+ = 5.87399e-08, omega+ = 35.9684
ExecutionTime = 0.115765 s  ClockTime = 0 s

Time = 116s

DICPCG:  Solving for Ux, Initial residual = 0.180329, Final residual = 2.59725e-08, No Iterations 3
DICPCG:  Solving for Uy, Initial residual = 0, Final residual = 0, No Iterations 0
smoothSolver:  Solving for epsilon, Initial residual = 0.0224719, Final residual = 4.05178e-07, No Iterations 7
smoothSolver:  Solving for k, Initial residual = 0.0337875, Final residual = 6.27396e-07, No Iterations 8
Uncorrected Ubar = 11.1775, pressure gradient = -1577.81
Rey = 0.100698, uTau = 0.507727, nut+ = 0, nuEff+ = 1, y+ = 0.317329, u+ = 0.317329, k+ = 1.15774e-07, epsilon+ = 2.07972e-06, omega+ = 199.595
ExecutionTime = 0.116653 s  ClockTime = 0 s

Time = 117s

DICPCG:  Solving for Ux, Initial residual = 0.197578, Final residual = 2.88365e-08, No Iterations 3
DICPCG:  Solving for Uy, Initial residual = 0, Final residual = 0, No Iterations 0
smoothSolver:  Solving for epsilon, Initial residual = 0.0178181, Final residual = 3.92294e-07, No Iterations 7
smoothSolver:  Solving for k, Initial residual = 0.0316644, Final residual = 6.261e-07, No Iterations 8
Uncorrected Ubar = 8.85025, pressure gradient = 1574.74
Rey = 0.56792, uTau = 1.20577, nut+ = 0, nuEff+ = 1, y+ = 0.753605, u+ = 0.753605, k+ = 2.18532e-08, epsilon+ = 7.22916e-08, omega+ = 36.7562
ExecutionTime = 0.117944 s  ClockTime = 0 s

Time = 118s

DICPCG:  Solving for Ux, Initial residual = 0.171922, Final residual = 2.4759e-08, No Iterations 3
DICPCG:  Solving for Uy, Initial residual = 0, Final residual = 0, No Iterations 0
smoothSolver:  Solving for epsilon, Initial residual = 0.0224956, Final residual = 4.12729e-07, No Iterations 7
smoothSolver:  Solving for k, Initial residual = 0.0338188, Final residual = 6.34199e-07, No Iterations 8
Uncorrected Ubar = 11.1228, pressure gradient = -1503.79
Rey = 0.109832, uTau = 0.530254, nut+ = 0, nuEff+ = 1, y+ = 0.331409, u+ = 0.331409, k+ = 1.24862e-07, epsilon+ = 2.05767e-06, omega+ = 183.106
ExecutionTime = 0.118919 s  ClockTime = 0 s

Time = 119s

DICPCG:  Solving for Ux, Initial residual = 0.187091, Final residual = 2.7309e-08, No Iterations 3
DICPCG:  Solving for Uy, Initial residual = 0, Final residual = 0, No Iterations 0
smoothSolver:  Solving for epsilon, Initial residual = 0.0180835, Final residual = 4.00447e-07, No Iterations 7
smoothSolver:  Solving for k, Initial residual = 0.0318154, Final residual = 6.33033e-07, No Iterations 8
Uncorrected Ubar = 8.90368, pressure gradient = 1502.26
Rey = 0.555324, uTau = 1.19232, nut+ = 0, nuEff+ = 1, y+ = 0.745201, u+ = 0.745201, k+ = 2.63212e-08, epsilon+ = 8.89397e-08, omega+ = 37.5445
ExecutionTime = 0.119789 s  ClockTime = 0 s

Time = 120s

DICPCG:  Solving for Ux, Initial residual = 0.163809, Final residual = 2.35878e-08, No Iterations 3
DICPCG:  Solving for Uy, Initial residual = 0, Final residual = 0, No Iterations 0
smoothSolver:  Solving for epsilon, Initial residual = 0.0225237, Final residual = 4.20273e-07, No Iterations 7
smoothSolver:  Solving for k, Initial residual = 0.0338428, Final residual = 6.40759e-07, No Iterations 8
Uncorrected Ubar = 11.0706, pressure gradient = -1433.2
[...]
smoothSolver:  Solving for k, Initial residual = 0.00178066, Final residual = 7.40308e-07, No Iterations 7
Uncorrected Ubar = 10, pressure gradient = 36.3179
Rey = 0.705636, uTau = 1.34403, nut+ = 0, nuEff+ = 1, y+ = 0.840021, u+ = 0.840021, k+ = 0.0918242, epsilon+ = 0.260378, omega+ = 31.5068
ExecutionTime = 0.942052 s  ClockTime = 1 s

Time = 971s

DICPCG:  Solving for Ux, Initial residual = 5.08609e-05, Final residual = 3.38918e-08, No Iterations 1
DICPCG:  Solving for Uy, Initial residual = 0, Final residual = 0, No Iterations 0
smoothSolver:  Solving for epsilon, Initial residual = 0.000210126, Final residual = 6.52062e-07, No Iterations 5
smoothSolver:  Solving for k, Initial residual = 0.00177676, Final residual = 7.38668e-07, No Iterations 7
Uncorrected Ubar = 10, pressure gradient = 36.3187
Rey = 0.705534, uTau = 1.34394, nut+ = 0, nuEff+ = 1, y+ = 0.839961, u+ = 0.839961, k+ = 0.0917956, epsilon+ = 0.260334, omega+ = 31.5113
ExecutionTime = 0.94289 s  ClockTime = 1 s

Time = 972s

DICPCG:  Solving for Ux, Initial residual = 5.04177e-05, Final residual = 3.39319e-08, No Iterations 1
DICPCG:  Solving for Uy, Initial residual = 0, Final residual = 0, No Iterations 0
smoothSolver:  Solving for epsilon, Initial residual = 0.000209552, Final residual = 6.49967e-07, No Iterations 5
smoothSolver:  Solving for k, Initial residual = 0.00177284, Final residual = 7.37021e-07, No Iterations 7
Uncorrected Ubar = 10, pressure gradient = 36.3195
Rey = 0.705433, uTau = 1.34384, nut+ = 0, nuEff+ = 1, y+ = 0.839901, u+ = 0.839901, k+ = 0.0917671, epsilon+ = 0.26029, omega+ = 31.5158
ExecutionTime = 0.943725 s  ClockTime = 1 s

Time = 973s

DICPCG:  Solving for Ux, Initial residual = 4.99866e-05, Final residual = 3.39734e-08, No Iterations 1
DICPCG:  Solving for Uy, Initial residual = 0, Final residual = 0, No Iterations 0
smoothSolver:  Solving for epsilon, Initial residual = 0.000208976, Final residual = 6.47873e-07, No Iterations 5
smoothSolver:  Solving for k, Initial residual = 0.00176892, Final residual = 7.35368e-07, No Iterations 7
Uncorrected Ubar = 10, pressure gradient = 36.3203
Rey = 0.705332, uTau = 1.34374, nut+ = 0, nuEff+ = 1, y+ = 0.83984, u+ = 0.83984, k+ = 0.0917386, epsilon+ = 0.260247, omega+ = 31.5204
ExecutionTime = 0.944559 s  ClockTime = 1 s

Time = 974s

DICPCG:  Solving for Ux, Initial residual = 4.95566e-05, Final residual = 3.40045e-08, No Iterations 1
DICPCG:  Solving for Uy, Initial residual = 0, Final residual = 0, No Iterations 0
smoothSolver:  Solving for epsilon, Initial residual = 0.000208401, Final residual = 6.45781e-07, No Iterations 5
smoothSolver:  Solving for k, Initial residual = 0.00176497, Final residual = 7.33709e-07, No Iterations 7
Uncorrected Ubar = 10, pressure gradient = 36.321
Rey = 0.70523, uTau = 1.34365, nut+ = 0, nuEff+ = 1, y+ = 0.83978, u+ = 0.83978, k+ = 0.0917102, epsilon+ = 0.260204, omega+ = 31.5249
ExecutionTime = 0.945424 s  ClockTime = 1 s

Time = 975s

DICPCG:  Solving for Ux, Initial residual = 4.91276e-05, Final residual = 3.40248e-08, No Iterations 1
DICPCG:  Solving for Uy, Initial residual = 0, Final residual = 0, No Iterations 0
smoothSolver:  Solving for epsilon, Initial residual = 0.000207825, Final residual = 6.43689e-07, No Iterations 5
smoothSolver:  Solving for k, Initial residual = 0.00176102, Final residual = 7.32044e-07, No Iterations 7
Uncorrected Ubar = 10, pressure gradient = 36.3216
Rey = 0.705129, uTau = 1.34355, nut+ = 0, nuEff+ = 1, y+ = 0.839719, u+ = 0.839719, k+ = 0.0916819, epsilon+ = 0.260161, omega+ = 31.5294
ExecutionTime = 0.946303 s  ClockTime = 1 s

Time = 976s

DICPCG:  Solving for Ux, Initial residual = 4.86997e-05, Final residual = 3.40792e-08, No Iterations 1
DICPCG:  Solving for Uy, Initial residual = 0, Final residual = 0, No Iterations 0
smoothSolver:  Solving for epsilon, Initial residual = 0.00020725, Final residual = 6.41599e-07, No Iterations 5
smoothSolver:  Solving for k, Initial residual = 0.00175705, Final residual = 7.30373e-07, No Iterations 7
Uncorrected Ubar = 10, pressure gradient = 36.3222
Rey = 0.705027, uTau = 1.34345, nut+ = 0, nuEff+ = 1, y+ = 0.839659, u+ = 0.839659, k+ = 0.0916537, epsilon+ = 0.260118, omega+ = 31.5339
ExecutionTime = 0.947154 s  ClockTime = 1 s

Time = 977s

DICPCG:  Solving for Ux, Initial residual = 4.82729e-05, Final residual = 3.41341e-08, No Iterations 1
DICPCG:  Solving for Uy, Initial residual = 0, Final residual = 0, No Iterations 0
smoothSolver:  Solving for epsilon, Initial residual = 0.000206674, Final residual = 6.3951e-07, No Iterations 5
smoothSolver:  Solving for k, Initial residual = 0.00175306, Final residual = 7.28696e-07, No Iterations 7
Uncorrected Ubar = 10, pressure gradient = 36.3228
Rey = 0.704925, uTau = 1.34336, nut+ = 0, nuEff+ = 1, y+ = 0.839598, u+ = 0.839598, k+ = 0.0916255, epsilon+ = 0.260076, omega+ = 31.5385
ExecutionTime = 0.948038 s  ClockTime = 1 s

Time = 978s

DICPCG:  Solving for Ux, Initial residual = 4.7847e-05, Final residual = 3.41778e-08, No Iterations 1
DICPCG:  Solving for Uy, Initial residual = 0, Final residual = 0, No Iterations 0
smoothSolver:  Solving for epsilon, Initial residual = 0.000206098, Final residual = 6.37421e-07, No Iterations 5
smoothSolver:  Solving for k, Initial residual = 0.00174906, Final residual = 7.27014e-07, No Iterations 7
Uncorrected Ubar = 10, pressure gradient = 36.3233
Rey = 0.704823, uTau = 1.34326, nut+ = 0, nuEff+ = 1, y+ = 0.839537, u+ = 0.839537, k+ = 0.0915975, epsilon+ = 0.260033, omega+ = 31.543
ExecutionTime = 0.949379 s  ClockTime = 1 s

Time = 979s

DICPCG:  Solving for Ux, Initial residual = 4.74223e-05, Final residual = 3.42098e-08, No Iterations 1
DICPCG:  Solving for Uy, Initial residual = 0, Final residual = 0, No Iterations 0
smoothSolver:  Solving for epsilon, Initial residual = 0.000205522, Final residual = 6.35334e-07, No Iterations 5
smoothSolver:  Solving for k, Initial residual = 0.00174505, Final residual = 7.25326e-07, No Iterations 7
Uncorrected Ubar = 10, pressure gradient = 36.3237
Rey = 0.704721, uTau = 1.34316, nut+ = 0, nuEff+ = 1, y+ = 0.839477, u+ = 0.839477, k+ = 0.0915694, epsilon+ = 0.259991, omega+ = 31.5476
ExecutionTime = 0.950291 s  ClockTime = 1 s

Time = 980s

DICPCG:  Solving for Ux, Initial residual = 4.69986e-05, Final residual = 3.42676e-08, No Iterations 1
DICPCG:  Solving for Uy, Initial residual = 0, Final residual = 0, No Iterations 0
smoothSolver:  Solving for epsilon, Initial residual = 0.000204945, Final residual = 6.33249e-07, No Iterations 5
smoothSolver:  Solving for k, Initial residual = 0.00174103, Final residual = 7.23632e-07, No Iterations 7
Uncorrected Ubar = 10, pressure gradient = 36.3242
Rey = 0.704619, uTau = 1.34307, nut+ = 0, nuEff+ = 1, y+ = 0.839416, u+ = 0.839416, k+ = 0.0915415, epsilon+ = 0.25995, omega+ = 31.5521
ExecutionTime = 0.951163 s  ClockTime = 1 s

Time = 981s

DICPCG:  Solving for Ux, Initial residual = 4.65759e-05, Final residual = 3.43172e-08, No Iterations 1
DICPCG:  Solving for Uy, Initial residual = 0, Final residual = 0, No Iterations 0
smoothSolver:  Solving for epsilon, Initial residual = 0.000204369, Final residual = 6.31164e-07, No Iterations 5
smoothSolver:  Solving for k, Initial residual = 0.00173699, Final residual = 7.21933e-07, No Iterations 7
Uncorrected Ubar = 10, pressure gradient = 36.3245
Rey = 0.704517, uTau = 1.34297, nut+ = 0, nuEff+ = 1, y+ = 0.839355, u+ = 0.839355, k+ = 0.0915136, epsilon+ = 0.259908, omega+ = 31.5567
ExecutionTime = 0.952046 s  ClockTime = 1 s

Time = 982s

DICPCG:  Solving for Ux, Initial residual = 4.61543e-05, Final residual = 3.43548e-08, No Iterations 1
DICPCG:  Solving for Uy, Initial residual = 0, Final residual = 0, No Iterations 0
smoothSolver:  Solving for epsilon, Initial residual = 0.000203792, Final residual = 6.29081e-07, No Iterations 5
smoothSolver:  Solving for k, Initial residual = 0.00173294, Final residual = 7.20229e-07, No Iterations 7
Uncorrected Ubar = 10, pressure gradient = 36.3249
Rey = 0.704415, uTau = 1.34287, nut+ = 0, nuEff+ = 1, y+ = 0.839294, u+ = 0.839294, k+ = 0.0914858, epsilon+ = 0.259866, omega+ = 31.5612
ExecutionTime = 0.953242 s  ClockTime = 1 s

Time = 983s

DICPCG:  Solving for Ux, Initial residual = 4.57338e-05, Final residual = 3.43799e-08, No Iterations 1
DICPCG:  Solving for Uy, Initial residual = 0, Final residual = 0, No Iterations 0
smoothSolver:  Solving for epsilon, Initial residual = 0.000203215, Final residual = 6.26998e-07, No Iterations 5
smoothSolver:  Solving for k, Initial residual = 0.00172887, Final residual = 7.18519e-07, No Iterations 7
Uncorrected Ubar = 10, pressure gradient = 36.3251
Rey = 0.704313, uTau = 1.34277, nut+ = 0, nuEff+ = 1, y+ = 0.839233, u+ = 0.839233, k+ = 0.0914581, epsilon+ = 0.259825, omega+ = 31.5658
ExecutionTime = 0.954563 s  ClockTime = 1 s

Time = 984s

DICPCG:  Solving for Ux, Initial residual = 4.53604e-05, Final residual = 3.43922e-08, No Iterations 1
DICPCG:  Solving for Uy, Initial residual = 0, Final residual = 0, No Iterations 0
smoothSolver:  Solving for epsilon, Initial residual = 0.000202638, Final residual = 6.24918e-07, No Iterations 5
smoothSolver:  Solving for k, Initial residual = 0.00172479, Final residual = 7.16804e-07, No Iterations 7
Uncorrected Ubar = 10, pressure gradient = 36.3254
Rey = 0.70421, uTau = 1.34268, nut+ = 0, nuEff+ = 1, y+ = 0.839172, u+ = 0.839172, k+ = 0.0914305, epsilon+ = 0.259784, omega+ = 31.5704
ExecutionTime = 0.955756 s  ClockTime = 1 s

Time = 985s

DICPCG:  Solving for Ux, Initial residual = 4.49906e-05, Final residual = 3.44077e-08, No Iterations 1
DICPCG:  Solving for Uy, Initial residual = 0, Final residual = 0, No Iterations 0
smoothSolver:  Solving for epsilon, Initial residual = 0.000202061, Final residual = 6.22838e-07, No Iterations 5
smoothSolver:  Solving for k, Initial residual = 0.0017207, Final residual = 7.15084e-07, No Iterations 7
Uncorrected Ubar = 10, pressure gradient = 36.3256
Rey = 0.704108, uTau = 1.34258, nut+ = 0, nuEff+ = 1, y+ = 0.839111, u+ = 0.839111, k+ = 0.0914029, epsilon+ = 0.259744, omega+ = 31.5749
ExecutionTime = 0.956881 s  ClockTime = 1 s

Time = 986s

DICPCG:  Solving for Ux, Initial residual = 4.46217e-05, Final residual = 3.44173e-08, No Iterations 1
DICPCG:  Solving for Uy, Initial residual = 0, Final residual = 0, No Iterations 0
smoothSolver:  Solving for epsilon, Initial residual = 0.000201484, Final residual = 6.2076e-07, No Iterations 5
smoothSolver:  Solving for k, Initial residual = 0.0017166, Final residual = 7.13359e-07, No Iterations 7
Uncorrected Ubar = 10, pressure gradient = 36.3257
Rey = 0.704005, uTau = 1.34248, nut+ = 0, nuEff+ = 1, y+ = 0.83905, u+ = 0.83905, k+ = 0.0913754, epsilon+ = 0.259703, omega+ = 31.5795
ExecutionTime = 0.957994 s  ClockTime = 1 s

Time = 987s

DICPCG:  Solving for Ux, Initial residual = 4.42536e-05, Final residual = 3.44753e-08, No Iterations 1
DICPCG:  Solving for Uy, Initial residual = 0, Final residual = 0, No Iterations 0
smoothSolver:  Solving for epsilon, Initial residual = 0.000200907, Final residual = 6.18683e-07, No Iterations 5
smoothSolver:  Solving for k, Initial residual = 0.00171249, Final residual = 7.11629e-07, No Iterations 7
Uncorrected Ubar = 10, pressure gradient = 36.3258
Rey = 0.703903, uTau = 1.34238, nut+ = 0, nuEff+ = 1, y+ = 0.838989, u+ = 0.838989, k+ = 0.0913479, epsilon+ = 0.259663, omega+ = 31.5841
ExecutionTime = 0.959175 s  ClockTime = 1 s

Time = 988s

DICPCG:  Solving for Ux, Initial residual = 4.38864e-05, Final residual = 3.45363e-08, No Iterations 1
DICPCG:  Solving for Uy, Initial residual = 0, Final residual = 0, No Iterations 0
smoothSolver:  Solving for epsilon, Initial residual = 0.00020033, Final residual = 6.16607e-07, No Iterations 5
smoothSolver:  Solving for k, Initial residual = 0.00170836, Final residual = 7.09893e-07, No Iterations 7
Uncorrected Ubar = 10, pressure gradient = 36.3258
Rey = 0.7038, uTau = 1.34228, nut+ = 0, nuEff+ = 1, y+ = 0.838928, u+ = 0.838928, k+ = 0.0913206, epsilon+ = 0.259623, omega+ = 31.5887
ExecutionTime = 0.960323 s  ClockTime = 1 s

Time = 989s

DICPCG:  Solving for Ux, Initial residual = 4.352e-05, Final residual = 3.45837e-08, No Iterations 1
DICPCG:  Solving for Uy, Initial residual = 0, Final residual = 0, No Iterations 0
smoothSolver:  Solving for epsilon, Initial residual = 0.000199752, Final residual = 6.14533e-07, No Iterations 5
smoothSolver:  Solving for k, Initial residual = 0.00170422, Final residual = 7.08153e-07, No Iterations 7
Uncorrected Ubar = 10, pressure gradient = 36.3259
Rey = 0.703698, uTau = 1.34219, nut+ = 0, nuEff+ = 1, y+ = 0.838867, u+ = 0.838867, k+ = 0.0912933, epsilon+ = 0.259583, omega+ = 31.5933
ExecutionTime = 0.961443 s  ClockTime = 1 s

Time = 990s

DICPCG:  Solving for Ux, Initial residual = 4.31786e-05, Final residual = 3.46171e-08, No Iterations 1
DICPCG:  Solving for Uy, Initial residual = 0, Final residual = 0, No Iterations 0
smoothSolver:  Solving for epsilon, Initial residual = 0.000199175, Final residual = 6.1246e-07, No Iterations 5
smoothSolver:  Solving for k, Initial residual = 0.00170007, Final residual = 7.06409e-07, No Iterations 7
Uncorrected Ubar = 10, pressure gradient = 36.3258
Rey = 0.703595, uTau = 1.34209, nut+ = 0, nuEff+ = 1, y+ = 0.838806, u+ = 0.838806, k+ = 0.0912661, epsilon+ = 0.259543, omega+ = 31.5979
ExecutionTime = 0.962555 s  ClockTime = 1 s

Time = 991s

DICPCG:  Solving for Ux, Initial residual = 4.2846e-05, Final residual = 3.46362e-08, No Iterations 1
DICPCG:  Solving for Uy, Initial residual = 0, Final residual = 0, No Iterations 0
smoothSolver:  Solving for epsilon, Initial residual = 0.000198598, Final residual = 6.10389e-07, No Iterations 5
smoothSolver:  Solving for k, Initial residual = 0.00169591, Final residual = 7.04659e-07, No Iterations 7
Uncorrected Ubar = 10, pressure gradient = 36.3257
Rey = 0.703492, uTau = 1.34199, nut+ = 0, nuEff+ = 1, y+ = 0.838744, u+ = 0.838744, k+ = 0.0912389, epsilon+ = 0.259504, omega+ = 31.6025
ExecutionTime = 0.963667 s  ClockTime = 1 s

Time = 992s

DICPCG:  Solving for Ux, Initial residual = 4.25141e-05, Final residual = 3.46409e-08, No Iterations 1
DICPCG:  Solving for Uy, Initial residual = 0, Final residual = 0, No Iterations 0
smoothSolver:  Solving for epsilon, Initial residual = 0.00019802, Final residual = 6.08319e-07, No Iterations 5
smoothSolver:  Solving for k, Initial residual = 0.00169174, Final residual = 7.02905e-07, No Iterations 7
Uncorrected Ubar = 10, pressure gradient = 36.3256
Rey = 0.703389, uTau = 1.34189, nut+ = 0, nuEff+ = 1, y+ = 0.838683, u+ = 0.838683, k+ = 0.0912119, epsilon+ = 0.259464, omega+ = 31.6071
ExecutionTime = 0.964825 s  ClockTime = 1 s

Time = 993s

DICPCG:  Solving for Ux, Initial residual = 4.21829e-05, Final residual = 3.46674e-08, No Iterations 1
DICPCG:  Solving for Uy, Initial residual = 0, Final residual = 0, No Iterations 0
smoothSolver:  Solving for epsilon, Initial residual = 0.000197442, Final residual = 6.06251e-07, No Iterations 5
smoothSolver:  Solving for k, Initial residual = 0.00168756, Final residual = 7.01146e-07, No Iterations 7
Uncorrected Ubar = 10, pressure gradient = 36.3254
Rey = 0.703287, uTau = 1.34179, nut+ = 0, nuEff+ = 1, y+ = 0.838622, u+ = 0.838622, k+ = 0.0911849, epsilon+ = 0.259425, omega+ = 31.6117
ExecutionTime = 0.966592 s  ClockTime = 1 s

Time = 994s

DICPCG:  Solving for Ux, Initial residual = 4.18524e-05, Final residual = 3.46944e-08, No Iterations 1
DICPCG:  Solving for Uy, Initial residual = 0, Final residual = 0, No Iterations 0
smoothSolver:  Solving for epsilon, Initial residual = 0.000196865, Final residual = 6.04184e-07, No Iterations 5
smoothSolver:  Solving for k, Initial residual = 0.00168336, Final residual = 6.99383e-07, No Iterations 7
Uncorrected Ubar = 10, pressure gradient = 36.3252
Rey = 0.703184, uTau = 1.3417, nut+ = 0, nuEff+ = 1, y+ = 0.83856, u+ = 0.83856, k+ = 0.091158, epsilon+ = 0.259387, omega+ = 31.6163
ExecutionTime = 0.967791 s  ClockTime = 1 s

Time = 995s

DICPCG:  Solving for Ux, Initial residual = 4.15225e-05, Final residual = 3.47069e-08, No Iterations 1
DICPCG:  Solving for Uy, Initial residual = 0, Final residual = 0, No Iterations 0
smoothSolver:  Solving for epsilon, Initial residual = 0.000196287, Final residual = 6.02119e-07, No Iterations 5
smoothSolver:  Solving for k, Initial residual = 0.00167916, Final residual = 6.97616e-07, No Iterations 7
Uncorrected Ubar = 10, pressure gradient = 36.325
Rey = 0.703081, uTau = 1.3416, nut+ = 0, nuEff+ = 1, y+ = 0.838499, u+ = 0.838499, k+ = 0.0911311, epsilon+ = 0.259348, omega+ = 31.6209
ExecutionTime = 0.968951 s  ClockTime = 1 s

Time = 996s

DICPCG:  Solving for Ux, Initial residual = 4.12366e-05, Final residual = 3.47045e-08, No Iterations 1
DICPCG:  Solving for Uy, Initial residual = 0, Final residual = 0, No Iterations 0
smoothSolver:  Solving for epsilon, Initial residual = 0.000195709, Final residual = 6.00055e-07, No Iterations 5
smoothSolver:  Solving for k, Initial residual = 0.00167494, Final residual = 6.95844e-07, No Iterations 7
Uncorrected Ubar = 10, pressure gradient = 36.3247
Rey = 0.702978, uTau = 1.3415, nut+ = 0, nuEff+ = 1, y+ = 0.838438, u+ = 0.838438, k+ = 0.0911043, epsilon+ = 0.25931, omega+ = 31.6255
ExecutionTime = 0.970196 s  ClockTime = 1 s

Time = 997s

DICPCG:  Solving for Ux, Initial residual = 4.09608e-05, Final residual = 3.47109e-08, No Iterations 1
DICPCG:  Solving for Uy, Initial residual = 0, Final residual = 0, No Iterations 0
smoothSolver:  Solving for epsilon, Initial residual = 0.000195132, Final residual = 5.97993e-07, No Iterations 5
smoothSolver:  Solving for k, Initial residual = 0.00167072, Final residual = 6.94067e-07, No Iterations 7
Uncorrected Ubar = 10, pressure gradient = 36.3243
Rey = 0.702875, uTau = 1.3414, nut+ = 0, nuEff+ = 1, y+ = 0.838376, u+ = 0.838376, k+ = 0.0910776, epsilon+ = 0.259272, omega+ = 31.6301
ExecutionTime = 0.971122 s  ClockTime = 1 s

Time = 998s

DICPCG:  Solving for Ux, Initial residual = 4.06854e-05, Final residual = 3.47409e-08, No Iterations 1
DICPCG:  Solving for Uy, Initial residual = 0, Final residual = 0, No Iterations 0
smoothSolver:  Solving for epsilon, Initial residual = 0.000194554, Final residual = 5.95932e-07, No Iterations 5
smoothSolver:  Solving for k, Initial residual = 0.00166648, Final residual = 6.92287e-07, No Iterations 7
Uncorrected Ubar = 10, pressure gradient = 36.3239
Rey = 0.702772, uTau = 1.3413, nut+ = 0, nuEff+ = 1, y+ = 0.838315, u+ = 0.838315, k+ = 0.091051, epsilon+ = 0.259234, omega+ = 31.6347
ExecutionTime = 0.972 s  ClockTime = 1 s

Time = 999s

DICPCG:  Solving for Ux, Initial residual = 4.04105e-05, Final residual = 3.47765e-08, No Iterations 1
DICPCG:  Solving for Uy, Initial residual = 0, Final residual = 0, No Iterations 0
smoothSolver:  Solving for epsilon, Initial residual = 0.000193976, Final residual = 5.93873e-07, No Iterations 5
smoothSolver:  Solving for k, Initial residual = 0.00166224, Final residual = 6.90502e-07, No Iterations 7
Uncorrected Ubar = 10, pressure gradient = 36.3235
Rey = 0.702668, uTau = 1.34121, nut+ = 0, nuEff+ = 1, y+ = 0.838253, u+ = 0.838253, k+ = 0.0910245, epsilon+ = 0.259196, omega+ = 31.6393
ExecutionTime = 0.972845 s  ClockTime = 1 s

Time = 1000s

DICPCG:  Solving for Ux, Initial residual = 4.0136e-05, Final residual = 3.47974e-08, No Iterations 1
DICPCG:  Solving for Uy, Initial residual = 0, Final residual = 0, No Iterations 0
smoothSolver:  Solving for epsilon, Initial residual = 0.000193399, Final residual = 5.91816e-07, No Iterations 5
smoothSolver:  Solving for k, Initial residual = 0.00165798, Final residual = 6.88714e-07, No Iterations 7
Uncorrected Ubar = 10, pressure gradient = 36.3231
Rey = 0.702565, uTau = 1.34111, nut+ = 0, nuEff+ = 1, y+ = 0.838192, u+ = 0.838192, k+ = 0.090998, epsilon+ = 0.259158, omega+ = 31.644
ExecutionTime = 0.97599 s  ClockTime = 1 s

End

