/*---------------------------------------------------------------------------*\
  =========                 |
  \\      /  F ield         | OpenFOAM: The Open Source CFD Toolbox
   \\    /   O peration     | Website:  https://openfoam.org
    \\  /    A nd           | Version:  12
     \\/     M anipulation  |
\*---------------------------------------------------------------------------*/
Build  : 12-cc05c1b03c38
Exec   : boundaryFoam
Date   : Oct 04 2024
Time   : 23:19:58
Host   : "DESKTOP-KBPC6IC"
PID    : 27660
I/O    : uncollated
Case   : /home/as/openfoam/OpenFOAM-12/test/boundaryLayer/boundaryWallFunctionsProfile
nProcs : 1
sigFpe : Enabling floating point exception trapping (FOAM_SIGFPE).
fileModificationChecking : Monitoring run-time modified files using timeStampMaster (fileModificationSkew 10)
allowSystemOperations : Allowing user-supplied system call operations

// * * * * * * * * * * * * * * * * * * * * * * * * * * * * * * * * * * * * * //
Create time

Create mesh for time = 0

Reading field U

Creating face flux

Selecting viscosity model constant
Selecting turbulence model type RAS
Selecting RAS turbulence model kEpsilon
RAS
{
    model           kEpsilon;
    turbulence      on;
    printCoeffs     on;
    Cmu             0.09;
    C1              1.44;
    C2              1.92;
    C3              0;
    sigmak          1;
    sigmaEps        1.3;
}

No fvModels present
No fvConstraints present
Generating wall data for patch: lowerWall
    Height to first cell centre y0 = 0.000625

Starting time loop

Time = 1s

DICPCG:  Solving for Ux, Initial residual = 1, Final residual = 1.09513e-08, No Iterations 4
DICPCG:  Solving for Uy, Initial residual = 0, Final residual = 0, No Iterations 0
smoothSolver:  Solving for epsilon, Initial residual = 0.998162, Final residual = 8.52482e-10, No Iterations 2
smoothSolver:  Solving for k, Initial residual = 0.999999, Final residual = 4.65012e-08, No Iterations 2
Uncorrected Ubar = 0.988507, pressure gradient = 0.247309
Rey = 604417, uTau = 0.0124391, nut+ = 0, nuEff+ = 1, y+ = 777.442, u+ = 777.442, k+ = 2.75137e-06, epsilon+ = 2.13854e-11, omega+ = 8.63625e-05
ExecutionTime = 0.006215 s  ClockTime = 0 s

Time = 2s

DICPCG:  Solving for Ux, Initial residual = 0.99875, Final residual = 1.23626e-07, No Iterations 3
DICPCG:  Solving for Uy, Initial residual = 0, Final residual = 0, No Iterations 0
smoothSolver:  Solving for epsilon, Initial residual = 0.995115, Final residual = 1.17872e-10, No Iterations 2
smoothSolver:  Solving for k, Initial residual = 0.298419, Final residual = 5.4636e-08, No Iterations 1
Uncorrected Ubar = 27.7495, pressure gradient = -0.239661
Rey = 154248, uTau = 0.0062839, nut+ = 0, nuEff+ = 1, y+ = 392.744, u+ = 392.744, k+ = 8.43313e-06, epsilon+ = 1.39791e-10, omega+ = 0.000184182
ExecutionTime = 0.007294 s  ClockTime = 0 s

Time = 3s

DICPCG:  Solving for Ux, Initial residual = 0.909934, Final residual = 1.25026e-07, No Iterations 3
DICPCG:  Solving for Uy, Initial residual = 0, Final residual = 0, No Iterations 0
smoothSolver:  Solving for epsilon, Initial residual = 0.575949, Final residual = 1.46738e-08, No Iterations 1
smoothSolver:  Solving for k, Initial residual = 0.633776, Final residual = 2.40141e-07, No Iterations 1
Uncorrected Ubar = -7.32854, pressure gradient = 0.235719
Rey = 526116, uTau = 0.0116054, nut+ = 0, nuEff+ = 1, y+ = 725.339, u+ = 725.339, k+ = 1.21702e-06, epsilon+ = 9.39883e-12, omega+ = 8.58093e-05
ExecutionTime = 0.008144 s  ClockTime = 0 s

Time = 4s

DICPCG:  Solving for Ux, Initial residual = 0.984772, Final residual = 1.26926e-07, No Iterations 3
DICPCG:  Solving for Uy, Initial residual = 0, Final residual = 0, No Iterations 0
smoothSolver:  Solving for epsilon, Initial residual = 0.569557, Final residual = 1.46082e-08, No Iterations 1
smoothSolver:  Solving for k, Initial residual = 0.625397, Final residual = 2.86882e-07, No Iterations 1
Uncorrected Ubar = 26.9357, pressure gradient = -0.228726
Rey = 185166, uTau = 0.00688494, nut+ = 0, nuEff+ = 1, y+ = 430.309, u+ = 430.309, k+ = 1.48117e-06, epsilon+ = 3.73497e-11, omega+ = 0.000280183
ExecutionTime = 0.008964 s  ClockTime = 0 s

Time = 5s

DICPCG:  Solving for Ux, Initial residual = 0.898512, Final residual = 1.3597e-07, No Iterations 3
DICPCG:  Solving for Uy, Initial residual = 0, Final residual = 0, No Iterations 0
smoothSolver:  Solving for epsilon, Initial residual = 0.577406, Final residual = 1.57489e-08, No Iterations 1
smoothSolver:  Solving for k, Initial residual = 0.724451, Final residual = 5.58784e-07, No Iterations 1
Uncorrected Ubar = -6.53476, pressure gradient = 0.224678
Rey = 471856, uTau = 0.0109907, nut+ = 0, nuEff+ = 1, y+ = 686.918, u+ = 686.918, k+ = 2.28087e-07, epsilon+ = 2.46363e-12, omega+ = 0.000120014
ExecutionTime = 0.00977 s  ClockTime = 0 s

Time = 6s

DICPCG:  Solving for Ux, Initial residual = 0.973127, Final residual = 1.33365e-07, No Iterations 3
DICPCG:  Solving for Uy, Initial residual = 0, Final residual = 0, No Iterations 0
smoothSolver:  Solving for epsilon, Initial residual = 0.57523, Final residual = 1.86095e-08, No Iterations 1
smoothSolver:  Solving for k, Initial residual = 0.360267, Final residual = 6.58307e-07, No Iterations 1
Uncorrected Ubar = 26.1508, pressure gradient = -0.218182
Rey = 198513, uTau = 0.00712877, nut+ = 0, nuEff+ = 1, y+ = 445.548, u+ = 445.548, k+ = 2.04965e-07, epsilon+ = 5.46212e-12, omega+ = 0.0002961
ExecutionTime = 0.010612 s  ClockTime = 0 s

Time = 7s

DICPCG:  Solving for Ux, Initial residual = 0.887184, Final residual = 1.33484e-07, No Iterations 3
DICPCG:  Solving for Uy, Initial residual = 0, Final residual = 0, No Iterations 0
smoothSolver:  Solving for epsilon, Initial residual = 0.608202, Final residual = 2.62447e-08, No Iterations 1
smoothSolver:  Solving for k, Initial residual = 0.125546, Final residual = 4.09782e-07, No Iterations 1
Uncorrected Ubar = -5.76817, pressure gradient = 0.21418
Rey = 433572, uTau = 0.0105354, nut+ = 0, nuEff+ = 1, y+ = 658.461, u+ = 658.461, k+ = 3.41492e-08, epsilon+ = 4.3289e-13, omega+ = 0.000140849
ExecutionTime = 0.011821 s  ClockTime = 0 s

Time = 8s

DICPCG:  Solving for Ux, Initial residual = 0.962784, Final residual = 1.3487e-07, No Iterations 3
DICPCG:  Solving for Uy, Initial residual = 0, Final residual = 0, No Iterations 0
smoothSolver:  Solving for epsilon, Initial residual = 0.707779, Final residual = 1.0434e-07, No Iterations 1
smoothSolver:  Solving for k, Initial residual = 0.110183, Final residual = 3.64304e-07, No Iterations 1
Uncorrected Ubar = 25.4001, pressure gradient = -0.208089
Rey = 201492, uTau = 0.00718205, nut+ = 0, nuEff+ = 1, y+ = 448.878, u+ = 448.878, k+ = 2.63137e-08, epsilon+ = 7.29387e-13, omega+ = 0.000307987
ExecutionTime = 0.012775 s  ClockTime = 0 s

Time = 9s

DICPCG:  Solving for Ux, Initial residual = 0.87702, Final residual = 1.30664e-07, No Iterations 3
DICPCG:  Solving for Uy, Initial residual = 0, Final residual = 0, No Iterations 0
smoothSolver:  Solving for epsilon, Initial residual = 0.420479, Final residual = 1.53481e-07, No Iterations 1
smoothSolver:  Solving for k, Initial residual = 0.0921396, Final residual = 3.33778e-07, No Iterations 1
Uncorrected Ubar = -5.03586, pressure gradient = 0.204193
Rey = 404190, uTau = 0.0101722, nut+ = 0, nuEff+ = 1, y+ = 635.76, u+ = 635.76, k+ = 4.59409e-09, epsilon+ = 6.4908e-14, omega+ = 0.000156984
ExecutionTime = 0.014036 s  ClockTime = 0 s

Time = 10s

DICPCG:  Solving for Ux, Initial residual = 0.95324, Final residual = 1.34876e-07, No Iterations 3
DICPCG:  Solving for Uy, Initial residual = 0, Final residual = 0, No Iterations 0
smoothSolver:  Solving for epsilon, Initial residual = 0.12894, Final residual = 1.58325e-07, No Iterations 1
smoothSolver:  Solving for k, Initial residual = 0.105618, Final residual = 3.24035e-07, No Iterations 1
Uncorrected Ubar = 24.6841, pressure gradient = -0.198446
Rey = 199159, uTau = 0.00714035, nut+ = 0, nuEff+ = 1, y+ = 446.272, u+ = 446.272, k+ = 3.2385e-09, epsilon+ = 9.36304e-14, omega+ = 0.000321241
ExecutionTime = 0.014892 s  ClockTime = 0 s

Time = 11s

DICPCG:  Solving for Ux, Initial residual = 0.867357, Final residual = 1.28401e-07, No Iterations 3
DICPCG:  Solving for Uy, Initial residual = 0, Final residual = 0, No Iterations 0
smoothSolver:  Solving for epsilon, Initial residual = 0.053351, Final residual = 9.35816e-08, No Iterations 1
smoothSolver:  Solving for k, Initial residual = 0.0969632, Final residual = 3.10238e-07, No Iterations 1
Uncorrected Ubar = -4.33722, pressure gradient = 0.194683
Rey = 379998, uTau = 0.00986304, nut+ = 0, nuEff+ = 1, y+ = 616.44, u+ = 616.44, k+ = 5.80814e-10, epsilon+ = 8.93325e-15, omega+ = 0.000170895
ExecutionTime = 0.015709 s  ClockTime = 0 s

Time = 12s

DICPCG:  Solving for Ux, Initial residual = 0.941262, Final residual = 1.33908e-07, No Iterations 3
DICPCG:  Solving for Uy, Initial residual = 0, Final residual = 0, No Iterations 0
smoothSolver:  Solving for epsilon, Initial residual = 0.0696941, Final residual = 1.31693e-07, No Iterations 1
smoothSolver:  Solving for k, Initial residual = 0.109549, Final residual = 3.0785e-07, No Iterations 1
Uncorrected Ubar = 24.0014, pressure gradient = -0.18924
Rey = 194058, uTau = 0.00704833, nut+ = 0, nuEff+ = 1, y+ = 440.521, u+ = 440.521, k+ = 3.87418e-10, epsilon+ = 1.17215e-14, omega+ = 0.000336172
ExecutionTime = 0.016506 s  ClockTime = 0 s

Time = 13s

DICPCG:  Solving for Ux, Initial residual = 0.858082, Final residual = 1.26531e-07, No Iterations 3
DICPCG:  Solving for Uy, Initial residual = 0, Final residual = 0, No Iterations 0
smoothSolver:  Solving for epsilon, Initial residual = 0.0504702, Final residual = 9.76858e-08, No Iterations 1
smoothSolver:  Solving for k, Initial residual = 0.105405, Final residual = 3.07666e-07, No Iterations 1
bounding k, min: 1.67142e-16 max: 1.65612e-08 average: 8.82214e-10
Uncorrected Ubar = -3.67085, pressure gradient = 0.185624
Rey = 359125, uTau = 0.00958832, nut+ = 0, nuEff+ = 1, y+ = 599.27, u+ = 599.27, k+ = 7.05362e-11, epsilon+ = 1.16587e-15, omega+ = 0.000183652
ExecutionTime = 0.017444 s  ClockTime = 0 s

Time = 14s

DICPCG:  Solving for Ux, Initial residual = 0.928551, Final residual = 1.32542e-07, No Iterations 3
DICPCG:  Solving for Uy, Initial residual = 0, Final residual = 0, No Iterations 0
smoothSolver:  Solving for epsilon, Initial residual = 0.0796539, Final residual = 1.45027e-07, No Iterations 1
smoothSolver:  Solving for k, Initial residual = 0.118824, Final residual = 3.13885e-07, No Iterations 1
bounding k, min: 6.69454e-17 max: 2.24155e-08 average: 1.19841e-09
Uncorrected Ubar = 23.3503, pressure gradient = -0.180455
Rey = 187480, uTau = 0.00692783, nut+ = 0, nuEff+ = 1, y+ = 432.99, u+ = 432.99, k+ = 4.54104e-11, epsilon+ = 1.44138e-15, omega+ = 0.000352679
ExecutionTime = 0.018318 s  ClockTime = 0 s

Time = 15s

DICPCG:  Solving for Ux, Initial residual = 0.848763, Final residual = 1.24846e-07, No Iterations 3
DICPCG:  Solving for Uy, Initial residual = 0, Final residual = 0, No Iterations 0
smoothSolver:  Solving for epsilon, Initial residual = 0.0620465, Final residual = 1.13299e-07, No Iterations 1
smoothSolver:  Solving for k, Initial residual = 0.11242, Final residual = 3.07965e-07, No Iterations 1
bounding k, min: 6.77168e-17 max: 2.98819e-08 average: 1.60044e-09
Uncorrected Ubar = -3.03524, pressure gradient = 0.176991
Rey = 340567, uTau = 0.00933729, nut+ = 0, nuEff+ = 1, y+ = 583.581, u+ = 583.581, k+ = 8.33059e-12, epsilon+ = 1.46803e-16, omega+ = 0.000195802
ExecutionTime = 0.019216 s  ClockTime = 0 s

Time = 16s

DICPCG:  Solving for Ux, Initial residual = 0.9158, Final residual = 1.31016e-07, No Iterations 3
DICPCG:  Solving for Uy, Initial residual = 0, Final residual = 0, No Iterations 0
smoothSolver:  Solving for epsilon, Initial residual = 0.0842663, Final residual = 1.47008e-07, No Iterations 1
smoothSolver:  Solving for k, Initial residual = 0.119219, Final residual = 3.01877e-07, No Iterations 1
bounding k, min: 7.025e-17 max: 4.02807e-08 average: 2.16548e-09
Uncorrected Ubar = 22.7293, pressure gradient = -0.172074
Rey = 180114, uTau = 0.00679038, nut+ = 0, nuEff+ = 1, y+ = 424.399, u+ = 424.399, k+ = 5.2431e-12, epsilon+ = 1.74909e-16, omega+ = 0.000370665
ExecutionTime = 0.020073 s  ClockTime = 0 s

Time = 17s

DICPCG:  Solving for Ux, Initial residual = 0.839623, Final residual = 1.23303e-07, No Iterations 3
DICPCG:  Solving for Uy, Initial residual = 0, Final residual = 0, No Iterations 0
smoothSolver:  Solving for epsilon, Initial residual = 0.0650123, Final residual = 1.1333e-07, No Iterations 1
smoothSolver:  Solving for k, Initial residual = 0.11677, Final residual = 3.05969e-07, No Iterations 1
bounding k, min: 6.7044e-17 max: 5.36566e-08 average: 2.88624e-09
Uncorrected Ubar = -2.42885, pressure gradient = 0.168762
Rey = 323741, uTau = 0.00910372, nut+ = 0, nuEff+ = 1, y+ = 568.983, u+ = 568.983, k+ = 2.67918e-12, epsilon+ = 1.80206e-17, omega+ = 7.47351e-05
ExecutionTime = 0.020939 s  ClockTime = 0 s

Time = 18s

DICPCG:  Solving for Ux, Initial residual = 0.903157, Final residual = 1.29424e-07, No Iterations 3
DICPCG:  Solving for Uy, Initial residual = 0, Final residual = 0, No Iterations 0
smoothSolver:  Solving for epsilon, Initial residual = 0.133875, Final residual = 2.271e-07, No Iterations 1
smoothSolver:  Solving for k, Initial residual = 0.136676, Final residual = 3.36472e-07, No Iterations 1
bounding k, min: 7.84947e-17 max: 7.20876e-08 average: 3.89435e-09
Uncorrected Ubar = 22.1368, pressure gradient = -0.164079
Rey = 172351, uTau = 0.00664243, nut+ = 0, nuEff+ = 1, y+ = 415.152, u+ = 415.152, k+ = 5.03253e-12, epsilon+ = 5.83987e-17, omega+ = 0.000128936
ExecutionTime = 0.021792 s  ClockTime = 0 s

Time = 19s

DICPCG:  Solving for Ux, Initial residual = 0.830279, Final residual = 1.21805e-07, No Iterations 3
DICPCG:  Solving for Uy, Initial residual = 0, Final residual = 0, No Iterations 0
smoothSolver:  Solving for epsilon, Initial residual = 0.119175, Final residual = 2.00876e-07, No Iterations 1
smoothSolver:  Solving for k, Initial residual = 0.143491, Final residual = 3.64367e-07, No Iterations 1
bounding k, min: 7.45168e-17 max: 9.60456e-08 average: 5.18345e-09
Uncorrected Ubar = -1.85018, pressure gradient = 0.160919
Rey = 308282, uTau = 0.00888371, nut+ = 0, nuEff+ = 1, y+ = 555.232, u+ = 555.232, k+ = 2.81353e-12, epsilon+ = 1.82529e-17, omega+ = 7.2084e-05
ExecutionTime = 0.022639 s  ClockTime = 0 s

Time = 20s

DICPCG:  Solving for Ux, Initial residual = 0.890611, Final residual = 1.27802e-07, No Iterations 3
DICPCG:  Solving for Uy, Initial residual = 0, Final residual = 0, No Iterations 0
smoothSolver:  Solving for epsilon, Initial residual = 0.164088, Final residual = 2.73914e-07, No Iterations 1
smoothSolver:  Solving for k, Initial residual = 0.129363, Final residual = 3.13032e-07, No Iterations 1
bounding k, min: 9.5346e-17 max: 1.28617e-07 average: 6.97951e-09
Uncorrected Ubar = 21.5713, pressure gradient = -0.156453
Rey = 164418, uTau = 0.00648776, nut+ = 0, nuEff+ = 1, y+ = 405.485, u+ = 405.485, k+ = 5.27534e-12, epsilon+ = 6.41698e-17, omega+ = 0.000135157
ExecutionTime = 0.023492 s  ClockTime = 0 s

Time = 21s

DICPCG:  Solving for Ux, Initial residual = 0.820731, Final residual = 1.20337e-07, No Iterations 3
DICPCG:  Solving for Uy, Initial residual = 0, Final residual = 0, No Iterations 0
smoothSolver:  Solving for epsilon, Initial residual = 0.119924, Final residual = 1.97189e-07, No Iterations 1
smoothSolver:  Solving for k, Initial residual = 0.143041, Final residual = 3.55316e-07, No Iterations 1
bounding k, min: 7.80225e-17 max: 1.71585e-07 average: 9.28063e-09
Uncorrected Ubar = -1.29761, pressure gradient = 0.153441
Rey = 293940, uTau = 0.0086746, nut+ = 0, nuEff+ = 1, y+ = 542.162, u+ = 542.162, k+ = 2.95081e-12, epsilon+ = 2.00777e-17, omega+ = 7.56012e-05
ExecutionTime = 0.024396 s  ClockTime = 0 s

Time = 22s

DICPCG:  Solving for Ux, Initial residual = 0.877955, Final residual = 1.26145e-07, No Iterations 3
DICPCG:  Solving for Uy, Initial residual = 0, Final residual = 0, No Iterations 0
smoothSolver:  Solving for epsilon, Initial residual = 0.154404, Final residual = 2.56326e-07, No Iterations 1
smoothSolver:  Solving for k, Initial residual = 0.136044, Final residual = 3.2661e-07, No Iterations 1
bounding k, min: 9.34068e-17 max: 2.28886e-07 average: 1.2476e-08
Uncorrected Ubar = 21.031, pressure gradient = -0.149179
Rey = 156447, uTau = 0.00632854, nut+ = 0, nuEff+ = 1, y+ = 395.533, u+ = 395.533, k+ = 5.54413e-12, epsilon+ = 7.08757e-17, omega+ = 0.000142043
ExecutionTime = 0.025271 s  ClockTime = 0 s

Time = 23s

DICPCG:  Solving for Ux, Initial residual = 0.811069, Final residual = 1.18903e-07, No Iterations 3
DICPCG:  Solving for Uy, Initial residual = 0, Final residual = 0, No Iterations 0
smoothSolver:  Solving for epsilon, Initial residual = 0.127217, Final residual = 2.05349e-07, No Iterations 1
smoothSolver:  Solving for k, Initial residual = 0.144488, Final residual = 3.53573e-07, No Iterations 1
bounding k, min: 8.0177e-17 max: 3.06183e-07 average: 1.65753e-08
Uncorrected Ubar = -0.769433, pressure gradient = 0.146311
Rey = 280529, uTau = 0.00847439, nut+ = 0, nuEff+ = 1, y+ = 529.649, u+ = 529.649, k+ = 3.09188e-12, epsilon+ = 2.20433e-17, omega+ = 7.92156e-05
ExecutionTime = 0.026123 s  ClockTime = 0 s

Time = 24s

DICPCG:  Solving for Ux, Initial residual = 0.86515, Final residual = 1.24454e-07, No Iterations 3
DICPCG:  Solving for Uy, Initial residual = 0, Final residual = 0, No Iterations 0
smoothSolver:  Solving for epsilon, Initial residual = 0.151195, Final residual = 2.52501e-07, No Iterations 1
smoothSolver:  Solving for k, Initial residual = 0.131221, Final residual = 3.15399e-07, No Iterations 1
bounding k, min: 9.51176e-17 max: 4.06235e-07 average: 2.22487e-08
Uncorrected Ubar = 20.5142, pressure gradient = -0.142242
Rey = 148503, uTau = 0.00616576, nut+ = 0, nuEff+ = 1, y+ = 385.36, u+ = 385.36, k+ = 5.84072e-12, epsilon+ = 7.86616e-17, omega+ = 0.000149642
ExecutionTime = 0.026996 s  ClockTime = 0 s

Time = 25s

DICPCG:  Solving for Ux, Initial residual = 0.801183, Final residual = 1.17471e-07, No Iterations 3
DICPCG:  Solving for Uy, Initial residual = 0, Final residual = 0, No Iterations 0
smoothSolver:  Solving for epsilon, Initial residual = 0.127749, Final residual = 2.03573e-07, No Iterations 1
smoothSolver:  Solving for k, Initial residual = 0.143713, Final residual = 3.48363e-07, No Iterations 1
bounding k, min: 8.28943e-17 max: 5.45994e-07 average: 2.95287e-08
Uncorrected Ubar = -0.263649, pressure gradient = 0.139511
Rey = 267897, uTau = 0.0082814, nut+ = 0, nuEff+ = 1, y+ = 517.587, u+ = 517.587, k+ = 3.23767e-12, epsilon+ = 2.41711e-17, omega+ = 8.29507e-05
ExecutionTime = 0.027889 s  ClockTime = 0 s

Time = 26s

DICPCG:  Solving for Ux, Initial residual = 0.852393, Final residual = 1.22724e-07, No Iterations 3
DICPCG:  Solving for Uy, Initial residual = 0, Final residual = 0, No Iterations 0
smoothSolver:  Solving for epsilon, Initial residual = 0.140594, Final residual = 2.40085e-07, No Iterations 1
smoothSolver:  Solving for k, Initial residual = 0.134166, Final residual = 3.26083e-07, No Iterations 1
bounding k, min: 9.46641e-17 max: 7.18326e-07 average: 3.95613e-08
Uncorrected Ubar = 20.0185, pressure gradient = -0.135624
Rey = 140598, uTau = 0.00599942, nut+ = 0, nuEff+ = 1, y+ = 374.964, u+ = 374.964, k+ = 6.16909e-12, epsilon+ = 8.7755e-17, omega+ = 0.000158055
ExecutionTime = 0.029465 s  ClockTime = 0 s

Time = 27s

DICPCG:  Solving for Ux, Initial residual = 0.790558, Final residual = 1.15892e-07, No Iterations 3
DICPCG:  Solving for Uy, Initial residual = 0, Final residual = 0, No Iterations 0
smoothSolver:  Solving for epsilon, Initial residual = 0.135165, Final residual = 2.1441e-07, No Iterations 1
smoothSolver:  Solving for k, Initial residual = 0.144581, Final residual = 3.48619e-07, No Iterations 1
bounding k, min: 9.1853e-17 max: 9.72773e-07 average: 5.2403e-08
Uncorrected Ubar = 0.22218, pressure gradient = 0.133026
Rey = 255907, uTau = 0.00809395, nut+ = 0, nuEff+ = 1, y+ = 505.872, u+ = 505.872, k+ = 3.38937e-12, epsilon+ = 2.64891e-17, omega+ = 8.68372e-05
ExecutionTime = 0.030479 s  ClockTime = 0 s

Time = 28s

DICPCG:  Solving for Ux, Initial residual = 0.839747, Final residual = 1.20798e-07, No Iterations 3
DICPCG:  Solving for Uy, Initial residual = 0, Final residual = 0, No Iterations 0
smoothSolver:  Solving for epsilon, Initial residual = 0.130413, Final residual = 2.34521e-07, No Iterations 1
smoothSolver:  Solving for k, Initial residual = 0.127201, Final residual = 3.16254e-07, No Iterations 1
bounding k, min: 1.04981e-16 max: 1.26184e-06 average: 6.99718e-08
Uncorrected Ubar = 19.5412, pressure gradient = -0.129309
Rey = 132692, uTau = 0.00582831, nut+ = 0, nuEff+ = 1, y+ = 364.269, u+ = 364.269, k+ = 6.53666e-12, epsilon+ = 9.85238e-17, omega+ = 0.000167472
ExecutionTime = 0.031371 s  ClockTime = 0 s

Time = 29s

DICPCG:  Solving for Ux, Initial residual = 0.779289, Final residual = 1.13873e-07, No Iterations 3
DICPCG:  Solving for Uy, Initial residual = 0, Final residual = 0, No Iterations 0
smoothSolver:  Solving for epsilon, Initial residual = 0.13917, Final residual = 2.25655e-07, No Iterations 1
smoothSolver:  Solving for k, Initial residual = 0.143579, Final residual = 3.44987e-07, No Iterations 1
bounding k, min: 1.01341e-16 max: 1.72812e-06 average: 9.22437e-08
Uncorrected Ubar = 0.691183, pressure gradient = 0.126836
Rey = 244423, uTau = 0.00791026, nut+ = 0, nuEff+ = 1, y+ = 494.391, u+ = 494.391, k+ = 3.54861e-12, epsilon+ = 2.90366e-17, omega+ = 9.09171e-05
ExecutionTime = 0.032226 s  ClockTime = 0 s

Time = 30s

DICPCG:  Solving for Ux, Initial residual = 0.827237, Final residual = 1.18105e-07, No Iterations 3
DICPCG:  Solving for Uy, Initial residual = 0, Final residual = 0, No Iterations 0
smoothSolver:  Solving for epsilon, Initial residual = 0.107414, Final residual = 2.17223e-07, No Iterations 1
smoothSolver:  Solving for k, Initial residual = 0.129022, Final residual = 3.3219e-07, No Iterations 1
bounding k, min: 1.20994e-16 max: 2.18677e-06 average: 1.2225e-07
Uncorrected Ubar = 19.0786, pressure gradient = -0.12328
Rey = 124684, uTau = 0.0056497, nut+ = 0, nuEff+ = 1, y+ = 353.106, u+ = 353.106, k+ = 6.95648e-12, epsilon+ = 1.11586e-16, omega+ = 0.000178228
ExecutionTime = 0.033074 s  ClockTime = 0 s

Time = 31s

DICPCG:  Solving for Ux, Initial residual = 0.766951, Final residual = 1.11151e-07, No Iterations 3
DICPCG:  Solving for Uy, Initial residual = 0, Final residual = 0, No Iterations 0
smoothSolver:  Solving for epsilon, Initial residual = 0.157813, Final residual = 2.71614e-07, No Iterations 1
smoothSolver:  Solving for k, Initial residual = 0.14428, Final residual = 3.43732e-07, No Iterations 1
bounding k, min: 1.38101e-16 max: 3.04051e-06 average: 1.59237e-07
Uncorrected Ubar = 1.14729, pressure gradient = 0.120922
Rey = 233316, uTau = 0.00772844, nut+ = 0, nuEff+ = 1, y+ = 483.028, u+ = 483.028, k+ = 3.71755e-12, epsilon+ = 3.18671e-17, omega+ = 9.52453e-05
ExecutionTime = 0.033921 s  ClockTime = 0 s

Time = 32s

DICPCG:  Solving for Ux, Initial residual = 0.814801, Final residual = 1.15137e-07, No Iterations 3
DICPCG:  Solving for Uy, Initial residual = 0, Final residual = 0, No Iterations 0
smoothSolver:  Solving for epsilon, Initial residual = 0.114851, Final residual = 2.58624e-07, No Iterations 1
smoothSolver:  Solving for k, Initial residual = 0.118144, Final residual = 3.17241e-07, No Iterations 1
bounding k, min: 1.7778e-16 max: 3.68048e-06 average: 2.0738e-07
Uncorrected Ubar = 18.6266, pressure gradient = -0.117512
Rey = 116431, uTau = 0.00545952, nut+ = 0, nuEff+ = 1, y+ = 341.22, u+ = 341.22, k+ = 7.44956e-12, epsilon+ = 1.27965e-16, omega+ = 0.000190861
ExecutionTime = 0.034848 s  ClockTime = 0 s

Time = 33s

DICPCG:  Solving for Ux, Initial residual = 0.752909, Final residual = 1.08748e-07, No Iterations 3
DICPCG:  Solving for Uy, Initial residual = 0, Final residual = 0, No Iterations 0
smoothSolver:  Solving for epsilon, Initial residual = 0.213922, Final residual = 4.05201e-07, No Iterations 1
smoothSolver:  Solving for k, Initial residual = 0.144626, Final residual = 3.43373e-07, No Iterations 1
bounding k, min: 1.7761e-16 max: 5.20685e-06 average: 2.62614e-07
Uncorrected Ubar = 1.59457, pressure gradient = 0.115256
Rey = 222503, uTau = 0.00754723, nut+ = 0, nuEff+ = 1, y+ = 471.702, u+ = 471.702, k+ = 3.8982e-12, epsilon+ = 3.50396e-17, omega+ = 9.98738e-05
ExecutionTime = 0.035718 s  ClockTime = 0 s

Time = 34s

DICPCG:  Solving for Ux, Initial residual = 0.80279, Final residual = 1.11286e-07, No Iterations 3
DICPCG:  Solving for Uy, Initial residual = 0, Final residual = 0, No Iterations 0
smoothSolver:  Solving for epsilon, Initial residual = 0.1979, Final residual = 4.22909e-07, No Iterations 1
smoothSolver:  Solving for k, Initial residual = 0.118587, Final residual = 3.27058e-07, No Iterations 1
bounding k, min: 2.11806e-16 max: 5.84494e-06 average: 3.29465e-07
Uncorrected Ubar = 18.1829, pressure gradient = -0.111973
Rey = 107868, uTau = 0.00525493, nut+ = 0, nuEff+ = 1, y+ = 328.433, u+ = 328.433, k+ = 9.03505e-12, epsilon+ = 1.49088e-16, omega+ = 0.000183346
ExecutionTime = 0.036613 s  ClockTime = 0 s

Time = 35s

DICPCG:  Solving for Ux, Initial residual = 0.736577, Final residual = 1.02698e-07, No Iterations 3
DICPCG:  Solving for Uy, Initial residual = 0, Final residual = 0, No Iterations 0
smoothSolver:  Solving for epsilon, Initial residual = 0.305388, Final residual = 6.37275e-07, No Iterations 1
smoothSolver:  Solving for k, Initial residual = 0.151195, Final residual = 3.67384e-07, No Iterations 1
bounding k, min: 2.16989e-16 max: 8.3903e-06 average: 3.94712e-07
Uncorrected Ubar = 2.03386, pressure gradient = 0.109797
Rey = 212078, uTau = 0.00736831, nut+ = 0, nuEff+ = 1, y+ = 460.519, u+ = 460.519, k+ = 6.46085e-12, epsilon+ = 4.33373e-17, omega+ = 7.45298e-05
ExecutionTime = 0.037521 s  ClockTime = 0 s

Time = 36s

DICPCG:  Solving for Ux, Initial residual = 0.791088, Final residual = 1.05203e-07, No Iterations 3
DICPCG:  Solving for Uy, Initial residual = 0, Final residual = 0, No Iterations 0
smoothSolver:  Solving for epsilon, Initial residual = 0.280375, Final residual = 5.99936e-07, No Iterations 1
smoothSolver:  Solving for k, Initial residual = 0.104271, Final residual = 2.82947e-07, No Iterations 1
bounding k, min: 2.12194e-16 max: 8.60503e-06 average: 4.66803e-07
Uncorrected Ubar = 17.7526, pressure gradient = -0.106621
Rey = 99291.6, uTau = 0.00504169, nut+ = 0, nuEff+ = 1, y+ = 315.106, u+ = 315.106, k+ = 2.13447e-11, epsilon+ = 2.77965e-16, omega+ = 0.000144696
ExecutionTime = 0.03838 s  ClockTime = 0 s

Time = 37s

DICPCG:  Solving for Ux, Initial residual = 0.718599, Final residual = 8.85605e-08, No Iterations 3
DICPCG:  Solving for Uy, Initial residual = 0, Final residual = 0, No Iterations 0
smoothSolver:  Solving for epsilon, Initial residual = 0.34002, Final residual = 7.78353e-07, No Iterations 1
smoothSolver:  Solving for k, Initial residual = 0.175593, Final residual = 6.04858e-07, No Iterations 1
bounding k, min: 2.18354e-16 max: 1.2416e-05 average: 5.1899e-07
Uncorrected Ubar = 2.45818, pressure gradient = 0.104508
Rey = 202352, uTau = 0.00719737, nut+ = 0, nuEff+ = 1, y+ = 449.836, u+ = 449.836, k+ = 1.14943e-11, epsilon+ = 1.03518e-16, omega+ = 0.000100067
ExecutionTime = 0.039226 s  ClockTime = 0 s

Time = 38s

DICPCG:  Solving for Ux, Initial residual = 0.779239, Final residual = 9.7341e-08, No Iterations 3
DICPCG:  Solving for Uy, Initial residual = 0, Final residual = 0, No Iterations 0
smoothSolver:  Solving for epsilon, Initial residual = 0.278448, Final residual = 5.92179e-07, No Iterations 1
smoothSolver:  Solving for k, Initial residual = 0.108087, Final residual = 3.10519e-07, No Iterations 1
bounding k, min: 2.14139e-16 max: 1.2778e-05 average: 5.93235e-07
Uncorrected Ubar = 17.3492, pressure gradient = -0.101441
Rey = 91443.7, uTau = 0.00483835, nut+ = 0, nuEff+ = 1, y+ = 302.397, u+ = 302.397, k+ = 3.81927e-11, epsilon+ = 5.56307e-16, omega+ = 0.000161842
ExecutionTime = 0.040073 s  ClockTime = 0 s

Time = 39s

DICPCG:  Solving for Ux, Initial residual = 0.701107, Final residual = 6.82883e-08, No Iterations 3
DICPCG:  Solving for Uy, Initial residual = 0, Final residual = 0, No Iterations 0
smoothSolver:  Solving for epsilon, Initial residual = 0.381087, Final residual = 9.6784e-07, No Iterations 1
smoothSolver:  Solving for k, Initial residual = 0.188098, Final residual = 8.84832e-07, No Iterations 1
bounding k, min: 2.19436e-16 max: 1.82883e-05 average: 6.36339e-07
Uncorrected Ubar = 2.8634, pressure gradient = 0.0993626
Rey = 193126, uTau = 0.00703137, nut+ = 0, nuEff+ = 1, y+ = 439.46, u+ = 439.46, k+ = 2.58811e-11, epsilon+ = 1.87277e-16, omega+ = 8.04005e-05
ExecutionTime = 0.040931 s  ClockTime = 0 s

Time = 40s

DICPCG:  Solving for Ux, Initial residual = 0.767861, Final residual = 8.028e-08, No Iterations 3
DICPCG:  Solving for Uy, Initial residual = 0, Final residual = 0, No Iterations 0
smoothSolver:  Solving for epsilon, Initial residual = 0.201039, Final residual = 3.59309e-07, No Iterations 1
smoothSolver:  Solving for k, Initial residual = 0.101163, Final residual = 4.4064e-07, No Iterations 1
bounding k, min: 2.16145e-16 max: 2.13181e-05 average: 7.49209e-07
Uncorrected Ubar = 16.9671, pressure gradient = -0.0964045
Rey = 84194.5, uTau = 0.00464261, nut+ = 0, nuEff+ = 1, y+ = 290.163, u+ = 290.163, k+ = 9.26966e-11, epsilon+ = 1.41022e-15, omega+ = 0.000169036
ExecutionTime = 0.041783 s  ClockTime = 0 s

Time = 41s

DICPCG:  Solving for Ux, Initial residual = 0.683572, Final residual = 1.8971e-07, No Iterations 3
DICPCG:  Solving for Uy, Initial residual = 0, Final residual = 0, No Iterations 0
smoothSolver:  Solving for epsilon, Initial residual = 0.300864, Final residual = 8.44936e-07, No Iterations 1
smoothSolver:  Solving for k, Initial residual = 0.169501, Final residual = 8.19541e-12, No Iterations 2
bounding k, min: 2.20497e-16 max: 2.9381e-05 average: 8.64204e-07
Uncorrected Ubar = 3.2564, pressure gradient = 0.0943042
Rey = 184130, uTau = 0.00686566, nut+ = 0, nuEff+ = 1, y+ = 429.103, u+ = 429.103, k+ = 4.73142e-11, epsilon+ = 4.60394e-16, omega+ = 0.000108117
ExecutionTime = 0.042639 s  ClockTime = 0 s

Time = 42s

DICPCG:  Solving for Ux, Initial residual = 0.757002, Final residual = 3.02869e-07, No Iterations 3
DICPCG:  Solving for Uy, Initial residual = 0, Final residual = 0, No Iterations 0
smoothSolver:  Solving for epsilon, Initial residual = 0.164727, Final residual = 2.66016e-07, No Iterations 1
smoothSolver:  Solving for k, Initial residual = 0.115659, Final residual = 9.39979e-07, No Iterations 1
bounding k, min: 2.18908e-16 max: 3.72591e-05 average: 1.05952e-06
Uncorrected Ubar = 16.5587, pressure gradient = -0.0913444
Rey = 74945.6, uTau = 0.00438019, nut+ = 0, nuEff+ = 1, y+ = 273.762, u+ = 273.762, k+ = 1.69836e-10, epsilon+ = 3.10208e-15, omega+ = 0.000202946
ExecutionTime = 0.043487 s  ClockTime = 0 s

Time = 43s

DICPCG:  Solving for Ux, Initial residual = 0.654113, Final residual = 4.53214e-07, No Iterations 3
DICPCG:  Solving for Uy, Initial residual = 0, Final residual = 0, No Iterations 0
smoothSolver:  Solving for epsilon, Initial residual = 0.171593, Final residual = 5.61189e-07, No Iterations 1
smoothSolver:  Solving for k, Initial residual = 0.130635, Final residual = 2.02739e-11, No Iterations 2
bounding k, min: 2.21796e-16 max: 4.84049e-05 average: 1.30789e-06
Uncorrected Ubar = 3.66753, pressure gradient = 0.0891384
Rey = 175349, uTau = 0.00669996, nut+ = 0, nuEff+ = 1, y+ = 418.748, u+ = 418.748, k+ = 8.89434e-11, epsilon+ = 8.27937e-16, omega+ = 0.000103429
ExecutionTime = 0.044394 s  ClockTime = 0 s

Time = 44s

DICPCG:  Solving for Ux, Initial residual = 0.745072, Final residual = 7.59398e-07, No Iterations 3
DICPCG:  Solving for Uy, Initial residual = 0, Final residual = 0, No Iterations 0
smoothSolver:  Solving for epsilon, Initial residual = 0.153155, Final residual = 4.07708e-07, No Iterations 1
smoothSolver:  Solving for k, Initial residual = 0.102261, Final residual = 3.88819e-11, No Iterations 2
bounding k, min: 2.16483e-16 max: 6.13256e-05 average: 1.61946e-06
Uncorrected Ubar = 16.1072, pressure gradient = -0.0860304
Rey = 63177.5, uTau = 0.00402162, nut+ = 0, nuEff+ = 1, y+ = 251.351, u+ = 251.351, k+ = 3.65033e-10, epsilon+ = 7.81489e-15, omega+ = 0.000237875
ExecutionTime = 0.04627 s  ClockTime = 0 s

Time = 45s

DICPCG:  Solving for Ux, Initial residual = 0.590136, Final residual = 8.63468e-07, No Iterations 3
DICPCG:  Solving for Uy, Initial residual = 0, Final residual = 0, No Iterations 0
smoothSolver:  Solving for epsilon, Initial residual = 0.0795052, Final residual = 2.61304e-07, No Iterations 1
smoothSolver:  Solving for k, Initial residual = 0.0900774, Final residual = 1.02514e-10, No Iterations 2
Uncorrected Ubar = 4.1257, pressure gradient = 0.0835879
Rey = 165788, uTau = 0.00651473, nut+ = 0, nuEff+ = 1, y+ = 407.171, u+ = 407.171, k+ = 1.45941e-10, epsilon+ = 1.6781e-15, omega+ = 0.000127761
ExecutionTime = 0.047302 s  ClockTime = 0 s

Time = 46s

DICPCG:  Solving for Ux, Initial residual = 0.724262, Final residual = 1.08493e-08, No Iterations 4
DICPCG:  Solving for Uy, Initial residual = 0, Final residual = 0, No Iterations 0
smoothSolver:  Solving for epsilon, Initial residual = 0.10349, Final residual = 3.39325e-07, No Iterations 1
smoothSolver:  Solving for k, Initial residual = 0.0726679, Final residual = 2.54863e-10, No Iterations 2
bounding k, min: 2.13689e-16 max: 9.34828e-05 average: 2.41835e-06
Uncorrected Ubar = 15.6301, pressure gradient = -0.0802863
Rey = 51039.5, uTau = 0.00361471, nut+ = 0, nuEff+ = 1, y+ = 225.919, u+ = 225.919, k+ = 6.49819e-10, epsilon+ = 1.85758e-14, omega+ = 0.000317624
ExecutionTime = 0.048444 s  ClockTime = 0 s

Time = 47s

DICPCG:  Solving for Ux, Initial residual = 0.473489, Final residual = 9.18079e-09, No Iterations 4
DICPCG:  Solving for Uy, Initial residual = 0, Final residual = 0, No Iterations 0
smoothSolver:  Solving for epsilon, Initial residual = 0.0872667, Final residual = 5.80072e-11, No Iterations 2
smoothSolver:  Solving for k, Initial residual = 0.0542604, Final residual = 8.25189e-10, No Iterations 2
bounding k, min: 2.2037e-16 max: 0.000111851 average: 2.87376e-06
Uncorrected Ubar = 4.60635, pressure gradient = 0.0776084
Rey = 156031, uTau = 0.00632012, nut+ = 0, nuEff+ = 1, y+ = 395.007, u+ = 395.007, k+ = 2.19009e-10, epsilon+ = 2.72464e-15, omega+ = 0.00013823
ExecutionTime = 0.049325 s  ClockTime = 0 s

Time = 48s

DICPCG:  Solving for Ux, Initial residual = 0.658507, Final residual = 1.57436e-08, No Iterations 4
DICPCG:  Solving for Uy, Initial residual = 0, Final residual = 0, No Iterations 0
smoothSolver:  Solving for epsilon, Initial residual = 0.131303, Final residual = 3.63137e-10, No Iterations 2
smoothSolver:  Solving for k, Initial residual = 0.0440502, Final residual = 2.34296e-09, No Iterations 2
bounding k, min: 2.05479e-16 max: 0.000130213 average: 3.35521e-06
Uncorrected Ubar = 15.1505, pressure gradient = -0.0742164
Rey = 39592.9, uTau = 0.00318367, nut+ = 0, nuEff+ = 1, y+ = 198.98, u+ = 198.98, k+ = 1.17103e-09, epsilon+ = 4.35982e-14, omega+ = 0.000413673
ExecutionTime = 0.050192 s  ClockTime = 0 s

Time = 49s

DICPCG:  Solving for Ux, Initial residual = 0.310943, Final residual = 9.85795e-07, No Iterations 3
DICPCG:  Solving for Uy, Initial residual = 0, Final residual = 0, No Iterations 0
smoothSolver:  Solving for epsilon, Initial residual = 0.130964, Final residual = 1.5925e-09, No Iterations 2
smoothSolver:  Solving for k, Initial residual = 0.0267023, Final residual = 8.42501e-09, No Iterations 2
bounding k, min: 2.16108e-16 max: 0.000148018 average: 3.80201e-06
Uncorrected Ubar = 5.07494, pressure gradient = 0.0714725
Rey = 147262, uTau = 0.00613995, nut+ = 0, nuEff+ = 1, y+ = 383.747, u+ = 383.747, k+ = 3.12195e-10, epsilon+ = 4.27598e-15, omega+ = 0.000152183
ExecutionTime = 0.05105 s  ClockTime = 0 s

Time = 50s

DICPCG:  Solving for Ux, Initial residual = 0.513164, Final residual = 1.84222e-08, No Iterations 4
DICPCG:  Solving for Uy, Initial residual = 0, Final residual = 0, No Iterations 0
smoothSolver:  Solving for epsilon, Initial residual = 0.191204, Final residual = 7.95202e-09, No Iterations 2
smoothSolver:  Solving for k, Initial residual = 0.0277886, Final residual = 2.26836e-08, No Iterations 2
bounding k, min: 2.04897e-16 max: 0.000162665 average: 4.21039e-06
Uncorrected Ubar = 14.6945, pressure gradient = -0.068162
Rey = 29223.5, uTau = 0.00273518, nut+ = 0, nuEff+ = 1, y+ = 170.949, u+ = 170.949, k+ = 2.08724e-09, epsilon+ = 1.07666e-13, omega+ = 0.000573147
ExecutionTime = 0.051964 s  ClockTime = 0 s

Time = 51s

DICPCG:  Solving for Ux, Initial residual = 0.162972, Final residual = 6.17515e-07, No Iterations 3
DICPCG:  Solving for Uy, Initial residual = 0, Final residual = 0, No Iterations 0
smoothSolver:  Solving for epsilon, Initial residual = 0.197249, Final residual = 2.51975e-08, No Iterations 2
smoothSolver:  Solving for k, Initial residual = 0.0130668, Final residual = 5.88887e-08, No Iterations 2
bounding k, min: 2.13204e-16 max: 0.000173169 average: 4.48418e-06
Uncorrected Ubar = 5.51246, pressure gradient = 0.0655268
Rey = 139651, uTau = 0.00597919, nut+ = 0, nuEff+ = 1, y+ = 373.699, u+ = 373.699, k+ = 4.40541e-10, epsilon+ = 6.25528e-15, omega+ = 0.000157768
ExecutionTime = 0.052842 s  ClockTime = 0 s

Time = 52s

DICPCG:  Solving for Ux, Initial residual = 0.316145, Final residual = 1.6911e-08, No Iterations 4
DICPCG:  Solving for Uy, Initial residual = 0, Final residual = 0, No Iterations 0
smoothSolver:  Solving for epsilon, Initial residual = 0.367825, Final residual = 8.52635e-08, No Iterations 2
smoothSolver:  Solving for k, Initial residual = 0.0253444, Final residual = 7.57101e-09, No Iterations 2
bounding k, min: 2.02446e-16 max: 0.000173569 average: 4.56183e-06
Uncorrected Ubar = 14.2719, pressure gradient = -0.0624106
Rey = 19801.5, uTau = 0.00225149, nut+ = 0, nuEff+ = 1, y+ = 140.718, u+ = 140.718, k+ = 4.14654e-09, epsilon+ = 3.13807e-13, omega+ = 0.00084088
ExecutionTime = 0.053714 s  ClockTime = 0 s

Time = 53s

DICPCG:  Solving for Ux, Initial residual = 0.0796024, Final residual = 3.55144e-07, No Iterations 3
DICPCG:  Solving for Uy, Initial residual = 0, Final residual = 0, No Iterations 0
smoothSolver:  Solving for epsilon, Initial residual = 0.259501, Final residual = 1.60536e-07, No Iterations 2
smoothSolver:  Solving for k, Initial residual = 0.0161234, Final residual = 7.52028e-07, No Iterations 2
bounding k, min: 2.10331e-16 max: 0.000161512 average: 4.28227e-06
Uncorrected Ubar = 5.91516, pressure gradient = 0.0599794
Rey = 132872, uTau = 0.00583226, nut+ = 0, nuEff+ = 1, y+ = 364.517, u+ = 364.517, k+ = 6.32404e-10, epsilon+ = 9.30135e-15, omega+ = 0.000163421
ExecutionTime = 0.05458 s  ClockTime = 0 s

Time = 54s

DICPCG:  Solving for Ux, Initial residual = 0.180414, Final residual = 8.40444e-07, No Iterations 3
DICPCG:  Solving for Uy, Initial residual = 0, Final residual = 0, No Iterations 0
smoothSolver:  Solving for epsilon, Initial residual = 0.393709, Final residual = 2.98701e-07, No Iterations 2
smoothSolver:  Solving for k, Initial residual = 0.0531609, Final residual = 9.65926e-08, No Iterations 3
bounding k, min: 1.99575e-16 max: 0.000132348 average: 3.66011e-06
Uncorrected Ubar = 13.8833, pressure gradient = -0.0571035
Rey = 11214.1, uTau = 0.00169435, nut+ = 0, nuEff+ = 1, y+ = 105.897, u+ = 105.897, k+ = 1.0016e-08, epsilon+ = 1.33637e-12, omega+ = 0.00148249
ExecutionTime = 0.055446 s  ClockTime = 0 s

Time = 55s

DICPCG:  Solving for Ux, Initial residual = 0.0564585, Final residual = 2.79116e-07, No Iterations 3
DICPCG:  Solving for Uy, Initial residual = 0, Final residual = 0, No Iterations 0
smoothSolver:  Solving for epsilon, Initial residual = 0.309028, Final residual = 1.70778e-07, No Iterations 2
smoothSolver:  Solving for k, Initial residual = 0.0428709, Final residual = 1.9801e-07, No Iterations 3
bounding k, min: 2.06593e-16 max: 0.000100329 average: 2.87584e-06
Uncorrected Ubar = 6.28539, pressure gradient = 0.0549081
Rey = 126631, uTau = 0.00569363, nut+ = 0, nuEff+ = 1, y+ = 355.852, u+ = 355.852, k+ = 9.34613e-10, epsilon+ = 1.40091e-14, omega+ = 0.000166547
ExecutionTime = 0.056311 s  ClockTime = 0 s

Time = 56s

DICPCG:  Solving for Ux, Initial residual = 0.163341, Final residual = 7.76089e-07, No Iterations 3
DICPCG:  Solving for Uy, Initial residual = 0, Final residual = 0, No Iterations 0
smoothSolver:  Solving for epsilon, Initial residual = 0.43094, Final residual = 8.12337e-08, No Iterations 2
smoothSolver:  Solving for k, Initial residual = 0.086192, Final residual = 1.6618e-07, No Iterations 3
bounding k, min: 1.97773e-16 max: 7.33292e-05 average: 2.32866e-06
Uncorrected Ubar = 13.5306, pressure gradient = -0.0522722
Rey = 3513.14, uTau = 0.000948347, nut+ = 0, nuEff+ = 1, y+ = 59.2717, u+ = 59.2717, k+ = 4.53822e-08, epsilon+ = 1.91783e-11, omega+ = 0.00469551
ExecutionTime = 0.057256 s  ClockTime = 0 s

Time = 57s

DICPCG:  Solving for Ux, Initial residual = 0.0726887, Final residual = 3.50597e-07, No Iterations 3
DICPCG:  Solving for Uy, Initial residual = 0, Final residual = 0, No Iterations 0
smoothSolver:  Solving for epsilon, Initial residual = 0.213234, Final residual = 2.84131e-08, No Iterations 2
smoothSolver:  Solving for k, Initial residual = 0.0433501, Final residual = 4.61603e-08, No Iterations 3
bounding k, min: 2.03281e-16 max: 6.44445e-05 average: 2.09296e-06
Uncorrected Ubar = 6.62098, pressure gradient = 0.0503507
Rey = 120773, uTau = 0.00556039, nut+ = 0, nuEff+ = 1, y+ = 347.525, u+ = 347.525, k+ = 1.40982e-09, epsilon+ = 2.18609e-14, omega+ = 0.000172291
ExecutionTime = 0.058153 s  ClockTime = 0 s

Time = 58s

DICPCG:  Solving for Ux, Initial residual = 0.163607, Final residual = 7.61399e-07, No Iterations 3
DICPCG:  Solving for Uy, Initial residual = 0, Final residual = 0, No Iterations 0
smoothSolver:  Solving for epsilon, Initial residual = 0.322413, Final residual = 2.29626e-08, No Iterations 2
smoothSolver:  Solving for k, Initial residual = 0.0976514, Final residual = 3.22625e-08, No Iterations 3
bounding k, min: 1.96231e-16 max: 5.67506e-05 average: 2.08557e-06
Uncorrected Ubar = 13.2127, pressure gradient = -0.0479406
Rey = 3101.19, uTau = 0.000891013, nut+ = 0, nuEff+ = 1, y+ = 55.6883, u+ = 55.6883, k+ = 7.40861e-08, epsilon+ = 3.54086e-11, omega+ = 0.00531042
ExecutionTime = 0.059023 s  ClockTime = 0 s

Time = 59s

DICPCG:  Solving for Ux, Initial residual = 0.0752457, Final residual = 3.66246e-07, No Iterations 3
DICPCG:  Solving for Uy, Initial residual = 0, Final residual = 0, No Iterations 0
smoothSolver:  Solving for epsilon, Initial residual = 0.281119, Final residual = 8.21725e-09, No Iterations 2
smoothSolver:  Solving for k, Initial residual = 0.0595094, Final residual = 1.74023e-07, No Iterations 2
bounding k, min: 2.00771e-16 max: 5.79495e-05 average: 2.09103e-06
Uncorrected Ubar = 6.92731, pressure gradient = 0.0462348
Rey = 114986, uTau = 0.00542554, nut+ = 0, nuEff+ = 1, y+ = 339.096, u+ = 339.096, k+ = 2.18658e-09, epsilon+ = 3.47538e-14, omega+ = 0.000176602
ExecutionTime = 0.059887 s  ClockTime = 0 s

Time = 60s

DICPCG:  Solving for Ux, Initial residual = 0.159127, Final residual = 7.64574e-07, No Iterations 3
DICPCG:  Solving for Uy, Initial residual = 0, Final residual = 0, No Iterations 0
smoothSolver:  Solving for epsilon, Initial residual = 0.345477, Final residual = 1.07433e-08, No Iterations 2
smoothSolver:  Solving for k, Initial residual = 0.0961788, Final residual = 3.63387e-07, No Iterations 2
bounding k, min: 1.95733e-16 max: 5.48134e-05 average: 2.24964e-06
Uncorrected Ubar = 12.9232, pressure gradient = -0.0439935
Rey = 8949.49, uTau = 0.00151363, nut+ = 0, nuEff+ = 1, y+ = 94.6017, u+ = 94.6017, k+ = 3.81267e-08, epsilon+ = 6.27834e-12, omega+ = 0.00182967
ExecutionTime = 0.060782 s  ClockTime = 0 s

Time = 61s

DICPCG:  Solving for Ux, Initial residual = 0.0728237, Final residual = 3.75642e-07, No Iterations 3
DICPCG:  Solving for Uy, Initial residual = 0, Final residual = 0, No Iterations 0
smoothSolver:  Solving for epsilon, Initial residual = 0.240639, Final residual = 1.27703e-08, No Iterations 2
smoothSolver:  Solving for k, Initial residual = 0.039503, Final residual = 8.3941e-07, No Iterations 2
bounding k, min: 1.97932e-16 max: 6.14214e-05 average: 2.40368e-06
Uncorrected Ubar = 7.20703, pressure gradient = 0.0424748
Rey = 109510, uTau = 0.00529476, nut+ = 0, nuEff+ = 1, y+ = 330.922, u+ = 330.922, k+ = 3.46293e-09, epsilon+ = 5.69054e-14, omega+ = 0.000182586
ExecutionTime = 0.062164 s  ClockTime = 0 s

Time = 62s

DICPCG:  Solving for Ux, Initial residual = 0.129682, Final residual = 6.54008e-07, No Iterations 3
DICPCG:  Solving for Uy, Initial residual = 0, Final residual = 0, No Iterations 0
smoothSolver:  Solving for epsilon, Initial residual = 0.238863, Final residual = 1.97761e-08, No Iterations 2
smoothSolver:  Solving for k, Initial residual = 0.0776217, Final residual = 3.9052e-07, No Iterations 2
bounding k, min: 1.94315e-16 max: 5.83567e-05 average: 2.64711e-06
Uncorrected Ubar = 12.653, pressure gradient = -0.0403466
Rey = 14448.9, uTau = 0.00192326, nut+ = 0, nuEff+ = 1, y+ = 120.203, u+ = 120.203, k+ = 3.56912e-08, epsilon+ = 3.63294e-12, omega+ = 0.00113098
ExecutionTime = 0.063241 s  ClockTime = 0 s

Time = 63s

DICPCG:  Solving for Ux, Initial residual = 0.0618969, Final residual = 3.31799e-07, No Iterations 3
DICPCG:  Solving for Uy, Initial residual = 0, Final residual = 0, No Iterations 0
smoothSolver:  Solving for epsilon, Initial residual = 0.262107, Final residual = 3.06633e-08, No Iterations 2
smoothSolver:  Solving for k, Initial residual = 0.0335002, Final residual = 5.57324e-07, No Iterations 2
bounding k, min: 1.95763e-16 max: 6.29876e-05 average: 2.79284e-06
Uncorrected Ubar = 7.47093, pressure gradient = 0.0389513
Rey = 104223, uTau = 0.00516539, nut+ = 0, nuEff+ = 1, y+ = 322.837, u+ = 322.837, k+ = 5.62418e-09, epsilon+ = 9.49499e-14, omega+ = 0.000187583
ExecutionTime = 0.064129 s  ClockTime = 0 s

Time = 64s

DICPCG:  Solving for Ux, Initial residual = 0.115498, Final residual = 5.69311e-07, No Iterations 3
DICPCG:  Solving for Uy, Initial residual = 0, Final residual = 0, No Iterations 0
smoothSolver:  Solving for epsilon, Initial residual = 0.309283, Final residual = 2.50344e-08, No Iterations 2
smoothSolver:  Solving for k, Initial residual = 0.0606686, Final residual = 6.78214e-07, No Iterations 2
bounding k, min: 1.93109e-16 max: 5.96942e-05 average: 3.0276e-06
Uncorrected Ubar = 12.4011, pressure gradient = -0.0368969
Rey = 19497.4, uTau = 0.00223413, nut+ = 0, nuEff+ = 1, y+ = 139.633, u+ = 139.633, k+ = 4.10491e-08, epsilon+ = 3.0839e-12, omega+ = 0.000834745
ExecutionTime = 0.064995 s  ClockTime = 0 s

Time = 65s

DICPCG:  Solving for Ux, Initial residual = 0.0604368, Final residual = 3.2208e-07, No Iterations 3
DICPCG:  Solving for Uy, Initial residual = 0, Final residual = 0, No Iterations 0
smoothSolver:  Solving for epsilon, Initial residual = 0.190358, Final residual = 3.3118e-08, No Iterations 2
smoothSolver:  Solving for k, Initial residual = 0.0162774, Final residual = 7.90975e-07, No Iterations 2
bounding k, min: 1.93845e-16 max: 6.45002e-05 average: 3.28981e-06
Uncorrected Ubar = 7.71464, pressure gradient = 0.0356169
Rey = 99434, uTau = 0.00504531, nut+ = 0, nuEff+ = 1, y+ = 315.332, u+ = 315.332, k+ = 9.27517e-09, epsilon+ = 1.61898e-13, omega+ = 0.000193944
ExecutionTime = 0.065859 s  ClockTime = 0 s

Time = 66s

DICPCG:  Solving for Ux, Initial residual = 0.0955875, Final residual = 4.85879e-07, No Iterations 3
DICPCG:  Solving for Uy, Initial residual = 0, Final residual = 0, No Iterations 0
smoothSolver:  Solving for epsilon, Initial residual = 0.179316, Final residual = 3.94112e-08, No Iterations 2
smoothSolver:  Solving for k, Initial residual = 0.04, Final residual = 5.00346e-07, No Iterations 2
bounding k, min: 1.91898e-16 max: 7.97926e-05 average: 3.63942e-06
Uncorrected Ubar = 12.1703, pressure gradient = -0.0336589
Rey = 23838.4, uTau = 0.00247035, nut+ = 0, nuEff+ = 1, y+ = 154.397, u+ = 154.397, k+ = 5.28792e-08, epsilon+ = 3.24589e-12, omega+ = 0.000682034
ExecutionTime = 0.066717 s  ClockTime = 0 s

Time = 67s

DICPCG:  Solving for Ux, Initial residual = 0.0510042, Final residual = 2.85701e-07, No Iterations 3
DICPCG:  Solving for Uy, Initial residual = 0, Final residual = 0, No Iterations 0
smoothSolver:  Solving for epsilon, Initial residual = 0.222307, Final residual = 8.36044e-08, No Iterations 2
smoothSolver:  Solving for k, Initial residual = 0.0249025, Final residual = 4.82386e-07, No Iterations 2
bounding k, min: 1.92127e-16 max: 8.3376e-05 average: 3.90362e-06
Uncorrected Ubar = 7.93621, pressure gradient = 0.0324626
Rey = 95190.5, uTau = 0.00493647, nut+ = 0, nuEff+ = 1, y+ = 308.53, u+ = 308.53, k+ = 1.55703e-08, epsilon+ = 2.7823e-13, omega+ = 0.000198548
ExecutionTime = 0.067619 s  ClockTime = 0 s

Time = 68s

DICPCG:  Solving for Ux, Initial residual = 0.084849, Final residual = 4.53345e-07, No Iterations 3
DICPCG:  Solving for Uy, Initial residual = 0, Final residual = 0, No Iterations 0
smoothSolver:  Solving for epsilon, Initial residual = 0.351706, Final residual = 2.40445e-08, No Iterations 2
smoothSolver:  Solving for k, Initial residual = 0.0338116, Final residual = 4.22361e-07, No Iterations 2
bounding k, min: 1.91528e-16 max: 0.000100164 average: 4.24952e-06
Uncorrected Ubar = 11.9626, pressure gradient = -0.0306163
Rey = 27563.7, uTau = 0.00265637, nut+ = 0, nuEff+ = 1, y+ = 166.023, u+ = 166.023, k+ = 7.36839e-08, epsilon+ = 3.90161e-12, omega+ = 0.00058834
ExecutionTime = 0.068526 s  ClockTime = 0 s

Time = 69s

DICPCG:  Solving for Ux, Initial residual = 0.044417, Final residual = 2.63063e-07, No Iterations 3
DICPCG:  Solving for Uy, Initial residual = 0, Final residual = 0, No Iterations 0
smoothSolver:  Solving for epsilon, Initial residual = 0.114429, Final residual = 8.69206e-08, No Iterations 2
smoothSolver:  Solving for k, Initial residual = 0.0195304, Final residual = 5.33113e-07, No Iterations 2
bounding k, min: 1.92646e-16 max: 0.000101639 average: 4.57529e-06
Uncorrected Ubar = 8.13205, pressure gradient = 0.0295379
Rey = 91670.7, uTau = 0.00484435, nut+ = 0, nuEff+ = 1, y+ = 302.772, u+ = 302.772, k+ = 2.63343e-08, epsilon+ = 4.8337e-13, omega+ = 0.000203946
ExecutionTime = 0.069397 s  ClockTime = 0 s

Time = 70s

DICPCG:  Solving for Ux, Initial residual = 0.0645362, Final residual = 3.77296e-07, No Iterations 3
DICPCG:  Solving for Uy, Initial residual = 0, Final residual = 0, No Iterations 0
smoothSolver:  Solving for epsilon, Initial residual = 0.219534, Final residual = 4.34635e-08, No Iterations 2
smoothSolver:  Solving for k, Initial residual = 0.0303641, Final residual = 3.35968e-07, No Iterations 2
bounding k, min: 1.93529e-16 max: 0.000112525 average: 4.91533e-06
Uncorrected Ubar = 11.7765, pressure gradient = -0.0278352
Rey = 30772.4, uTau = 0.00280673, nut+ = 0, nuEff+ = 1, y+ = 175.421, u+ = 175.421, k+ = 1.0751e-07, epsilon+ = 5.0987e-12, omega+ = 0.000526947
ExecutionTime = 0.07026 s  ClockTime = 0 s

Time = 71s

DICPCG:  Solving for Ux, Initial residual = 0.0321635, Final residual = 2.08267e-07, No Iterations 3
DICPCG:  Solving for Uy, Initial residual = 0, Final residual = 0, No Iterations 0
smoothSolver:  Solving for epsilon, Initial residual = 0.235822, Final residual = 1.67912e-07, No Iterations 2
smoothSolver:  Solving for k, Initial residual = 0.0384538, Final residual = 8.85843e-07, No Iterations 2
bounding k, min: 1.95514e-16 max: 0.000103413 average: 5.04328e-06
Uncorrected Ubar = 8.30875, pressure gradient = 0.0268456
Rey = 88541.7, uTau = 0.00476095, nut+ = 0, nuEff+ = 1, y+ = 297.56, u+ = 297.56, k+ = 4.51659e-08, epsilon+ = 8.44007e-13, omega+ = 0.000207631
ExecutionTime = 0.071121 s  ClockTime = 0 s

Time = 72s

DICPCG:  Solving for Ux, Initial residual = 0.0487264, Final residual = 3.09314e-07, No Iterations 3
DICPCG:  Solving for Uy, Initial residual = 0, Final residual = 0, No Iterations 0
smoothSolver:  Solving for epsilon, Initial residual = 0.272764, Final residual = 5.54286e-08, No Iterations 2
smoothSolver:  Solving for k, Initial residual = 0.0422206, Final residual = 3.49186e-07, No Iterations 2
bounding k, min: 1.97447e-16 max: 9.98842e-05 average: 5.12978e-06
Uncorrected Ubar = 11.6085, pressure gradient = -0.0252797
Rey = 33685.7, uTau = 0.00293659, nut+ = 0, nuEff+ = 1, y+ = 183.537, u+ = 183.537, k+ = 1.62884e-07, epsilon+ = 7.04851e-12, omega+ = 0.000480813
ExecutionTime = 0.071982 s  ClockTime = 0 s

Time = 73s

DICPCG:  Solving for Ux, Initial residual = 0.0260768, Final residual = 1.7795e-07, No Iterations 3
DICPCG:  Solving for Uy, Initial residual = 0, Final residual = 0, No Iterations 0
smoothSolver:  Solving for epsilon, Initial residual = 0.164538, Final residual = 1.3666e-07, No Iterations 2
smoothSolver:  Solving for k, Initial residual = 0.0520367, Final residual = 8.14971e-08, No Iterations 3
bounding k, min: 2.00157e-16 max: 8.72631e-05 average: 5.23059e-06
Uncorrected Ubar = 8.4676, pressure gradient = 0.0244112
Rey = 85815.1, uTau = 0.00468707, nut+ = 0, nuEff+ = 1, y+ = 292.942, u+ = 292.942, k+ = 7.7997e-08, epsilon+ = 1.49014e-12, omega+ = 0.000212279
ExecutionTime = 0.072859 s  ClockTime = 0 s

Time = 74s

DICPCG:  Solving for Ux, Initial residual = 0.0418361, Final residual = 2.77922e-07, No Iterations 3
DICPCG:  Solving for Uy, Initial residual = 0, Final residual = 0, No Iterations 0
smoothSolver:  Solving for epsilon, Initial residual = 0.167406, Final residual = 1.45255e-08, No Iterations 2
smoothSolver:  Solving for k, Initial residual = 0.0588073, Final residual = 3.63758e-07, No Iterations 2
bounding k, min: 2.03143e-16 max: 9.09838e-05 average: 5.60471e-06
Uncorrected Ubar = 11.4558, pressure gradient = -0.0229828
Rey = 36368.7, uTau = 0.00305129, nut+ = 0, nuEff+ = 1, y+ = 190.706, u+ = 190.706, k+ = 2.52391e-07, epsilon+ = 1.01208e-11, omega+ = 0.000445554
ExecutionTime = 0.07373 s  ClockTime = 0 s

Time = 75s

DICPCG:  Solving for Ux, Initial residual = 0.026291, Final residual = 1.77462e-07, No Iterations 3
DICPCG:  Solving for Uy, Initial residual = 0, Final residual = 0, No Iterations 0
smoothSolver:  Solving for epsilon, Initial residual = 0.17736, Final residual = 4.36608e-08, No Iterations 2
smoothSolver:  Solving for k, Initial residual = 0.0710935, Final residual = 6.69934e-07, No Iterations 2
bounding k, min: 2.06943e-16 max: 0.000106982 average: 6.29563e-06
Uncorrected Ubar = 8.61291, pressure gradient = 0.0221996
Rey = 83338.9, uTau = 0.00461896, nut+ = 0, nuEff+ = 1, y+ = 288.685, u+ = 288.685, k+ = 1.36276e-07, epsilon+ = 2.64323e-12, omega+ = 0.000215513
ExecutionTime = 0.074781 s  ClockTime = 0 s

Time = 76s

DICPCG:  Solving for Ux, Initial residual = 0.0394339, Final residual = 2.5262e-07, No Iterations 3
DICPCG:  Solving for Uy, Initial residual = 0, Final residual = 0, No Iterations 0
smoothSolver:  Solving for epsilon, Initial residual = 0.177055, Final residual = 3.58493e-08, No Iterations 2
smoothSolver:  Solving for k, Initial residual = 0.06907, Final residual = 6.10367e-07, No Iterations 2
bounding k, min: 2.10724e-16 max: 0.00011553 average: 7.39191e-06
Uncorrected Ubar = 11.3172, pressure gradient = -0.020898
Rey = 38917.4, uTau = 0.0031564, nut+ = 0, nuEff+ = 1, y+ = 197.275, u+ = 197.275, k+ = 4.00218e-07, epsilon+ = 1.49972e-11, omega+ = 0.000416362
ExecutionTime = 0.075665 s  ClockTime = 0 s

Time = 77s

DICPCG:  Solving for Ux, Initial residual = 0.0248975, Final residual = 1.65593e-07, No Iterations 3
DICPCG:  Solving for Uy, Initial residual = 0, Final residual = 0, No Iterations 0
smoothSolver:  Solving for epsilon, Initial residual = 0.12297, Final residual = 4.41783e-08, No Iterations 2
smoothSolver:  Solving for k, Initial residual = 0.0739164, Final residual = 6.32484e-07, No Iterations 2
bounding k, min: 2.15783e-16 max: 0.000138668 average: 8.9973e-06
Uncorrected Ubar = 8.74613, pressure gradient = 0.0202353
Rey = 81080.9, uTau = 0.00455595, nut+ = 0, nuEff+ = 1, y+ = 284.747, u+ = 284.747, k+ = 2.39743e-07, epsilon+ = 4.73842e-12, omega+ = 0.000219606
ExecutionTime = 0.076574 s  ClockTime = 0 s

Time = 78s

DICPCG:  Solving for Ux, Initial residual = 0.0331206, Final residual = 1.99344e-07, No Iterations 3
DICPCG:  Solving for Uy, Initial residual = 0, Final residual = 0, No Iterations 0
smoothSolver:  Solving for epsilon, Initial residual = 0.138633, Final residual = 5.11318e-08, No Iterations 2
smoothSolver:  Solving for k, Initial residual = 0.0738376, Final residual = 6.02644e-07, No Iterations 2
bounding k, min: 2.20525e-16 max: 0.000155326 average: 1.10788e-05
Uncorrected Ubar = 11.1864, pressure gradient = -0.0190226
Rey = 41601.9, uTau = 0.00326345, nut+ = 0, nuEff+ = 1, y+ = 203.965, u+ = 203.965, k+ = 6.4025e-07, epsilon+ = 2.2463e-11, omega+ = 0.000389831
ExecutionTime = 0.077535 s  ClockTime = 0 s

Time = 79s

DICPCG:  Solving for Ux, Initial residual = 0.0212483, Final residual = 1.44158e-07, No Iterations 3
DICPCG:  Solving for Uy, Initial residual = 0, Final residual = 0, No Iterations 0
smoothSolver:  Solving for epsilon, Initial residual = 0.12687, Final residual = 4.98309e-08, No Iterations 2
smoothSolver:  Solving for k, Initial residual = 0.076483, Final residual = 6.34386e-07, No Iterations 2
Uncorrected Ubar = 8.87069, pressure gradient = 0.0184235
Rey = 79144.8, uTau = 0.00450123, nut+ = 0, nuEff+ = 1, y+ = 281.327, u+ = 281.327, k+ = 4.2548e-07, epsilon+ = 8.50447e-12, omega+ = 0.000222088
ExecutionTime = 0.079106 s  ClockTime = 0 s

Time = 80s

DICPCG:  Solving for Ux, Initial residual = 0.0271505, Final residual = 1.40195e-07, No Iterations 3
DICPCG:  Solving for Uy, Initial residual = 0, Final residual = 0, No Iterations 0
smoothSolver:  Solving for epsilon, Initial residual = 0.128719, Final residual = 5.76387e-08, No Iterations 2
smoothSolver:  Solving for k, Initial residual = 0.0706702, Final residual = 6.54505e-07, No Iterations 2
Uncorrected Ubar = 11.0665, pressure gradient = -0.0173101
Rey = 44280.4, uTau = 0.00336686, nut+ = 0, nuEff+ = 1, y+ = 210.429, u+ = 210.429, k+ = 1.04109e-06, epsilon+ = 3.43486e-11, omega+ = 0.00036659
ExecutionTime = 0.080156 s  ClockTime = 0 s

Time = 81s

DICPCG:  Solving for Ux, Initial residual = 0.0174016, Final residual = 1.19511e-07, No Iterations 3
DICPCG:  Solving for Uy, Initial residual = 0, Final residual = 0, No Iterations 0
smoothSolver:  Solving for epsilon, Initial residual = 0.0993115, Final residual = 7.19362e-08, No Iterations 2
smoothSolver:  Solving for k, Initial residual = 0.073681, Final residual = 7.81565e-07, No Iterations 2
Uncorrected Ubar = 8.98844, pressure gradient = 0.0168094
Rey = 77377.5, uTau = 0.00445069, nut+ = 0, nuEff+ = 1, y+ = 278.168, u+ = 278.168, k+ = 7.60909e-07, epsilon+ = 1.53992e-11, omega+ = 0.000224865
ExecutionTime = 0.081048 s  ClockTime = 0 s

Time = 82s

DICPCG:  Solving for Ux, Initial residual = 0.0213181, Final residual = 1.21175e-07, No Iterations 3
DICPCG:  Solving for Uy, Initial residual = 0, Final residual = 0, No Iterations 0
smoothSolver:  Solving for epsilon, Initial residual = 0.112352, Final residual = 9.41723e-08, No Iterations 2
smoothSolver:  Solving for k, Initial residual = 0.0701002, Final residual = 8.13468e-07, No Iterations 2
Uncorrected Ubar = 10.9493, pressure gradient = -0.0156956
Rey = 47388.8, uTau = 0.00348304, nut+ = 0, nuEff+ = 1, y+ = 217.69, u+ = 217.69, k+ = 1.69836e-06, epsilon+ = 5.24356e-11, omega+ = 0.000343048
ExecutionTime = 0.081874 s  ClockTime = 0 s

Time = 83s

DICPCG:  Solving for Ux, Initial residual = 0.0140745, Final residual = 1.0101e-07, No Iterations 3
DICPCG:  Solving for Uy, Initial residual = 0, Final residual = 0, No Iterations 0
smoothSolver:  Solving for epsilon, Initial residual = 0.105423, Final residual = 1.03782e-07, No Iterations 2
smoothSolver:  Solving for k, Initial residual = 0.0676632, Final residual = 9.75574e-09, No Iterations 3
Uncorrected Ubar = 9.10058, pressure gradient = 0.0152239
Rey = 76264.7, uTau = 0.00441857, nut+ = 0, nuEff+ = 1, y+ = 276.161, u+ = 276.161, k+ = 1.3666e-06, epsilon+ = 2.7675e-11, omega+ = 0.000225011
ExecutionTime = 0.08269 s  ClockTime = 0 s

Time = 84s

DICPCG:  Solving for Ux, Initial residual = 0.0168379, Final residual = 1.09665e-07, No Iterations 3
DICPCG:  Solving for Uy, Initial residual = 0, Final residual = 0, No Iterations 0
smoothSolver:  Solving for epsilon, Initial residual = 0.0925039, Final residual = 1.44267e-07, No Iterations 2
smoothSolver:  Solving for k, Initial residual = 0.0610632, Final residual = 1.27367e-08, No Iterations 3
Uncorrected Ubar = 10.8424, pressure gradient = -0.0141881
Rey = 50578.1, uTau = 0.00359833, nut+ = 0, nuEff+ = 1, y+ = 224.896, u+ = 224.896, k+ = 2.81078e-06, epsilon+ = 8.14835e-11, omega+ = 0.000322107
ExecutionTime = 0.083505 s  ClockTime = 0 s

Time = 85s

DICPCG:  Solving for Ux, Initial residual = 0.0114585, Final residual = 8.0811e-08, No Iterations 3
DICPCG:  Solving for Uy, Initial residual = 0, Final residual = 0, No Iterations 0
smoothSolver:  Solving for epsilon, Initial residual = 0.0798927, Final residual = 1.88911e-07, No Iterations 2
smoothSolver:  Solving for k, Initial residual = 0.0619963, Final residual = 1.9314e-08, No Iterations 3
Uncorrected Ubar = 9.20747, pressure gradient = 0.0137789
Rey = 75602.5, uTau = 0.00439935, nut+ = 0, nuEff+ = 1, y+ = 274.959, u+ = 274.959, k+ = 2.46975e-06, epsilon+ = 4.97447e-11, omega+ = 0.000223795
ExecutionTime = 0.084379 s  ClockTime = 0 s

Time = 86s

DICPCG:  Solving for Ux, Initial residual = 0.0131409, Final residual = 6.59316e-08, No Iterations 3
DICPCG:  Solving for Uy, Initial residual = 0, Final residual = 0, No Iterations 0
smoothSolver:  Solving for epsilon, Initial residual = 0.0800692, Final residual = 2.69253e-07, No Iterations 2
smoothSolver:  Solving for k, Initial residual = 0.0556915, Final residual = 2.68202e-08, No Iterations 3
Uncorrected Ubar = 10.7393, pressure gradient = -0.0127375
Rey = 54402.6, uTau = 0.0037319, nut+ = 0, nuEff+ = 1, y+ = 233.244, u+ = 233.244, k+ = 4.66751e-06, epsilon+ = 1.26177e-10, omega+ = 0.000300367
ExecutionTime = 0.085197 s  ClockTime = 0 s

Time = 87s

DICPCG:  Solving for Ux, Initial residual = 0.00935543, Final residual = 4.83633e-08, No Iterations 3
DICPCG:  Solving for Uy, Initial residual = 0, Final residual = 0, No Iterations 0
smoothSolver:  Solving for epsilon, Initial residual = 0.0637739, Final residual = 2.91316e-07, No Iterations 2
smoothSolver:  Solving for k, Initial residual = 0.0528599, Final residual = 4.46999e-08, No Iterations 3
Uncorrected Ubar = 9.30836, pressure gradient = 0.0123503
Rey = 76068.5, uTau = 0.00441288, nut+ = 0, nuEff+ = 1, y+ = 275.805, u+ = 275.805, k+ = 4.45539e-06, epsilon+ = 8.77659e-11, omega+ = 0.000218875
ExecutionTime = 0.086012 s  ClockTime = 0 s

Time = 88s

DICPCG:  Solving for Ux, Initial residual = 0.0101023, Final residual = 3.80918e-08, No Iterations 3
DICPCG:  Solving for Uy, Initial residual = 0, Final residual = 0, No Iterations 0
smoothSolver:  Solving for epsilon, Initial residual = 0.064882, Final residual = 3.90302e-07, No Iterations 2
smoothSolver:  Solving for k, Initial residual = 0.0467561, Final residual = 7.94923e-08, No Iterations 3
Uncorrected Ubar = 10.643, pressure gradient = -0.0113911
Rey = 59050.7, uTau = 0.00388805, nut+ = 0, nuEff+ = 1, y+ = 243.003, u+ = 243.003, k+ = 7.7725e-06, epsilon+ = 1.94389e-10, omega+ = 0.000277887
ExecutionTime = 0.086827 s  ClockTime = 0 s

Time = 89s

DICPCG:  Solving for Ux, Initial residual = 0.00731297, Final residual = 3.01921e-08, No Iterations 3
DICPCG:  Solving for Uy, Initial residual = 0, Final residual = 0, No Iterations 0
smoothSolver:  Solving for epsilon, Initial residual = 0.0476746, Final residual = 5.0469e-07, No Iterations 2
smoothSolver:  Solving for k, Initial residual = 0.0434337, Final residual = 1.90839e-07, No Iterations 3
Uncorrected Ubar = 9.40139, pressure gradient = 0.0110333
Rey = 77906.7, uTau = 0.00446588, nut+ = 0, nuEff+ = 1, y+ = 279.118, u+ = 279.118, k+ = 7.97913e-06, epsilon+ = 1.5124e-10, omega+ = 0.000210604
ExecutionTime = 0.087671 s  ClockTime = 0 s

Time = 90s

DICPCG:  Solving for Ux, Initial residual = 0.00741216, Final residual = 2.00468e-08, No Iterations 3
DICPCG:  Solving for Uy, Initial residual = 0, Final residual = 0, No Iterations 0
smoothSolver:  Solving for epsilon, Initial residual = 0.0658438, Final residual = 1.51499e-08, No Iterations 3
smoothSolver:  Solving for k, Initial residual = 0.0377054, Final residual = 4.72366e-07, No Iterations 3
Uncorrected Ubar = 10.5543, pressure gradient = -0.0101888
Rey = 64892.8, uTau = 0.00407585, nut+ = 0, nuEff+ = 1, y+ = 254.741, u+ = 254.741, k+ = 1.29061e-05, epsilon+ = 2.95235e-10, omega+ = 0.000254173
ExecutionTime = 0.088533 s  ClockTime = 0 s

Time = 91s

DICPCG:  Solving for Ux, Initial residual = 0.00527745, Final residual = 2.58624e-08, No Iterations 3
DICPCG:  Solving for Uy, Initial residual = 0, Final residual = 0, No Iterations 0
smoothSolver:  Solving for epsilon, Initial residual = 0.0426114, Final residual = 4.06444e-08, No Iterations 3
smoothSolver:  Solving for k, Initial residual = 0.0335236, Final residual = 6.44318e-08, No Iterations 4
Uncorrected Ubar = 9.48341, pressure gradient = 0.00989624
Rey = 81337.6, uTau = 0.00456316, nut+ = 0, nuEff+ = 1, y+ = 285.197, u+ = 285.197, k+ = 1.40734e-05, epsilon+ = 2.53186e-10, omega+ = 0.000199892
ExecutionTime = 0.089374 s  ClockTime = 0 s

Time = 92s

DICPCG:  Solving for Ux, Initial residual = 0.00499431, Final residual = 1.98183e-08, No Iterations 3
DICPCG:  Solving for Uy, Initial residual = 0, Final residual = 0, No Iterations 0
smoothSolver:  Solving for epsilon, Initial residual = 0.057333, Final residual = 1.71316e-07, No Iterations 3
smoothSolver:  Solving for k, Initial residual = 0.0338291, Final residual = 1.94897e-07, No Iterations 4
Uncorrected Ubar = 10.4752, pressure gradient = -0.00907991
Rey = 71830.8, uTau = 0.0042882, nut+ = 0, nuEff+ = 1, y+ = 268.013, u+ = 268.013, k+ = 2.13655e-05, epsilon+ = 4.43711e-10, omega+ = 0.000230752
ExecutionTime = 0.090203 s  ClockTime = 0 s

Time = 93s

DICPCG:  Solving for Ux, Initial residual = 0.00348236, Final residual = 1.79717e-08, No Iterations 3
DICPCG:  Solving for Uy, Initial residual = 0, Final residual = 0, No Iterations 0
smoothSolver:  Solving for epsilon, Initial residual = 0.0361258, Final residual = 4.33081e-07, No Iterations 3
smoothSolver:  Solving for k, Initial residual = 0.0314251, Final residual = 5.57409e-07, No Iterations 4
Uncorrected Ubar = 9.55477, pressure gradient = 0.00895284
Rey = 85875.7, uTau = 0.00468873, nut+ = 0, nuEff+ = 1, y+ = 293.045, u+ = 293.045, k+ = 2.44819e-05, epsilon+ = 4.16211e-10, omega+ = 0.000188898
ExecutionTime = 0.091023 s  ClockTime = 0 s

Time = 94s

DICPCG:  Solving for Ux, Initial residual = 0.00313179, Final residual = 1.42921e-08, No Iterations 3
DICPCG:  Solving for Uy, Initial residual = 0, Final residual = 0, No Iterations 0
smoothSolver:  Solving for epsilon, Initial residual = 0.0504518, Final residual = 6.35237e-08, No Iterations 4
smoothSolver:  Solving for k, Initial residual = 0.0297181, Final residual = 9.11488e-07, No Iterations 4
Uncorrected Ubar = 10.4059, pressure gradient = -0.00801639
Rey = 79039.8, uTau = 0.00449824, nut+ = 0, nuEff+ = 1, y+ = 281.14, u+ = 281.14, k+ = 3.56718e-05, epsilon+ = 6.73058e-10, omega+ = 0.000209645
ExecutionTime = 0.091848 s  ClockTime = 0 s

Time = 95s

DICPCG:  Solving for Ux, Initial residual = 0.00217803, Final residual = 9.31965e-07, No Iterations 2
DICPCG:  Solving for Uy, Initial residual = 0, Final residual = 0, No Iterations 0
smoothSolver:  Solving for epsilon, Initial residual = 0.0435041, Final residual = 1.34165e-07, No Iterations 4
smoothSolver:  Solving for k, Initial residual = 0.0250103, Final residual = 1.98853e-07, No Iterations 5
Uncorrected Ubar = 9.62046, pressure gradient = 0.00807663
Rey = 90772.8, uTau = 0.00482056, nut+ = 0, nuEff+ = 1, y+ = 301.285, u+ = 301.285, k+ = 4.26898e-05, epsilon+ = 6.84367e-10, omega+ = 0.000178124
ExecutionTime = 0.092756 s  ClockTime = 0 s

Time = 96s

DICPCG:  Solving for Ux, Initial residual = 0.00200485, Final residual = 7.34584e-07, No Iterations 2
DICPCG:  Solving for Uy, Initial residual = 0, Final residual = 0, No Iterations 0
smoothSolver:  Solving for epsilon, Initial residual = 0.0530432, Final residual = 2.03541e-07, No Iterations 4
smoothSolver:  Solving for k, Initial residual = 0.0254026, Final residual = 3.3272e-07, No Iterations 5
Uncorrected Ubar = 10.3429, pressure gradient = -0.00703991
Rey = 86314.2, uTau = 0.00470068, nut+ = 0, nuEff+ = 1, y+ = 293.793, u+ = 293.793, k+ = 6.0957e-05, epsilon+ = 1.04027e-09, omega+ = 0.000189618
ExecutionTime = 0.09369 s  ClockTime = 0 s

Time = 97s

DICPCG:  Solving for Ux, Initial residual = 0.00146582, Final residual = 4.80618e-07, No Iterations 2
DICPCG:  Solving for Uy, Initial residual = 0, Final residual = 0, No Iterations 0
smoothSolver:  Solving for epsilon, Initial residual = 0.0793605, Final residual = 2.2146e-07, No Iterations 4
smoothSolver:  Solving for k, Initial residual = 0.0235075, Final residual = 3.73381e-07, No Iterations 5
Uncorrected Ubar = 9.68676, pressure gradient = 0.00704765
Rey = 98244.3, uTau = 0.00501503, nut+ = 0, nuEff+ = 1, y+ = 313.439, u+ = 313.439, k+ = 7.4779e-05, epsilon+ = 1.09024e-09, omega+ = 0.000161994
ExecutionTime = 0.095049 s  ClockTime = 0 s

Time = 98s

DICPCG:  Solving for Ux, Initial residual = 0.00140912, Final residual = 4.21586e-07, No Iterations 2
DICPCG:  Solving for Uy, Initial residual = 0, Final residual = 0, No Iterations 0
smoothSolver:  Solving for epsilon, Initial residual = 0.0647744, Final residual = 2.87758e-07, No Iterations 4
smoothSolver:  Solving for k, Initial residual = 0.0243499, Final residual = 3.20541e-07, No Iterations 5
Uncorrected Ubar = 10.2782, pressure gradient = -0.00604259
Rey = 97689.4, uTau = 0.00500085, nut+ = 0, nuEff+ = 1, y+ = 312.553, u+ = 312.553, k+ = 0.000105123, epsilon+ = 1.53965e-09, omega+ = 0.000162736
ExecutionTime = 0.096025 s  ClockTime = 0 s

Time = 99s

DICPCG:  Solving for Ux, Initial residual = 0.00120968, Final residual = 2.89681e-07, No Iterations 2
DICPCG:  Solving for Uy, Initial residual = 0, Final residual = 0, No Iterations 0
smoothSolver:  Solving for epsilon, Initial residual = 0.119342, Final residual = 1.33353e-07, No Iterations 4
smoothSolver:  Solving for k, Initial residual = 0.0277824, Final residual = 3.61828e-07, No Iterations 5
Uncorrected Ubar = 9.75107, pressure gradient = 0.00596419
Rey = 111819, uTau = 0.0053503, nut+ = 0, nuEff+ = 1, y+ = 334.394, u+ = 334.394, k+ = 0.000133735, epsilon+ = 1.64263e-09, omega+ = 0.000136475
ExecutionTime = 0.096866 s  ClockTime = 0 s

Time = 100s

DICPCG:  Solving for Ux, Initial residual = 0.00139208, Final residual = 2.67812e-07, No Iterations 2
DICPCG:  Solving for Uy, Initial residual = 0, Final residual = 0, No Iterations 0
smoothSolver:  Solving for epsilon, Initial residual = 0.0672091, Final residual = 1.80657e-07, No Iterations 4
smoothSolver:  Solving for k, Initial residual = 0.0266163, Final residual = 4.43849e-07, No Iterations 5
Uncorrected Ubar = 10.2232, pressure gradient = -0.00537842
Rey = 118074, uTau = 0.0054979, nut+ = 0, nuEff+ = 1, y+ = 343.619, u+ = 343.619, k+ = 0.000189557, epsilon+ = 2.14529e-09, omega+ = 0.000125749
ExecutionTime = 0.100098 s  ClockTime = 0 s

Time = 101s

DICPCG:  Solving for Ux, Initial residual = 0.00127027, Final residual = 2.45395e-07, No Iterations 2
DICPCG:  Solving for Uy, Initial residual = 0, Final residual = 0, No Iterations 0
smoothSolver:  Solving for epsilon, Initial residual = 0.115735, Final residual = 6.89931e-07, No Iterations 3
smoothSolver:  Solving for k, Initial residual = 0.0287968, Final residual = 5.96972e-07, No Iterations 5
Uncorrected Ubar = 9.79679, pressure gradient = 0.00518086
Rey = 138552, uTau = 0.00595561, nut+ = 0, nuEff+ = 1, y+ = 372.226, u+ = 372.226, k+ = 0.000258981, epsilon+ = 2.33183e-09, omega+ = 0.000100043
ExecutionTime = 0.101291 s  ClockTime = 0 s

Time = 102s

DICPCG:  Solving for Ux, Initial residual = 0.00143194, Final residual = 3.90107e-07, No Iterations 2
DICPCG:  Solving for Uy, Initial residual = 0, Final residual = 0, No Iterations 0
smoothSolver:  Solving for epsilon, Initial residual = 0.0972159, Final residual = 9.20062e-07, No Iterations 3
smoothSolver:  Solving for k, Initial residual = 0.0280742, Final residual = 9.44363e-07, No Iterations 5
Uncorrected Ubar = 10.1862, pressure gradient = -0.00507372
Rey = 155209, uTau = 0.00630346, nut+ = 0, nuEff+ = 1, y+ = 393.966, u+ = 393.966, k+ = 0.000403053, epsilon+ = 2.97903e-09, omega+ = 8.21241e-05
ExecutionTime = 0.1022 s  ClockTime = 0 s

Time = 103s

DICPCG:  Solving for Ux, Initial residual = 0.00138302, Final residual = 4.62606e-07, No Iterations 2
DICPCG:  Solving for Uy, Initial residual = 0, Final residual = 0, No Iterations 0
smoothSolver:  Solving for epsilon, Initial residual = 0.116702, Final residual = 1.49433e-07, No Iterations 4
smoothSolver:  Solving for k, Initial residual = 0.0314854, Final residual = 3.5666e-07, No Iterations 6
Uncorrected Ubar = 9.8273, pressure gradient = 0.00463532
Rey = 191262, uTau = 0.00699737, nut+ = 0, nuEff+ = 1, y+ = 437.336, u+ = 437.336, k+ = 0.000652295, epsilon+ = 3.4202e-09, omega+ = 5.82592e-05
ExecutionTime = 0.103056 s  ClockTime = 0 s

Time = 104s

DICPCG:  Solving for Ux, Initial residual = 0.00144973, Final residual = 1.89149e-08, No Iterations 3
DICPCG:  Solving for Uy, Initial residual = 0, Final residual = 0, No Iterations 0
smoothSolver:  Solving for epsilon, Initial residual = 0.138008, Final residual = 1.71763e-07, No Iterations 4
smoothSolver:  Solving for k, Initial residual = 0.0299078, Final residual = 5.43696e-07, No Iterations 6
Uncorrected Ubar = 10.1588, pressure gradient = -0.00487286
Rey = 223331, uTau = 0.00756127, nut+ = 0, nuEff+ = 1, y+ = 472.58, u+ = 472.58, k+ = 0.00128376, epsilon+ = 5.00269e-09, omega+ = 4.3299e-05
ExecutionTime = 0.103908 s  ClockTime = 0 s

Time = 105s

DICPCG:  Solving for Ux, Initial residual = 0.00141839, Final residual = 2.30326e-08, No Iterations 3
DICPCG:  Solving for Uy, Initial residual = 0, Final residual = 0, No Iterations 0
smoothSolver:  Solving for epsilon, Initial residual = 0.168179, Final residual = 3.18351e-07, No Iterations 4
smoothSolver:  Solving for k, Initial residual = 0.0376325, Final residual = 8.38054e-07, No Iterations 6
Uncorrected Ubar = 9.84427, pressure gradient = 0.00462124
Rey = 270449, uTau = 0.00910062, nut+ = 0.196235, nuEff+ = 1.19623, y+ = 568.789, u+ = 475.482, k+ = 0.00215185, epsilon+ = 5.47848e-09, omega+ = 2.82882e-05
ExecutionTime = 0.104754 s  ClockTime = 0 s

Time = 106s

DICPCG:  Solving for Ux, Initial residual = 0.00147798, Final residual = 2.18457e-08, No Iterations 3
DICPCG:  Solving for Uy, Initial residual = 0, Final residual = 0, No Iterations 0
smoothSolver:  Solving for epsilon, Initial residual = 0.190232, Final residual = 4.98718e-07, No Iterations 4
smoothSolver:  Solving for k, Initial residual = 0.0414292, Final residual = 8.77926e-07, No Iterations 6
Uncorrected Ubar = 10.1366, pressure gradient = -0.00421331
Rey = 289906, uTau = 0.0361524, nut+ = 16.6107, nuEff+ = 17.6107, y+ = 2259.53, u+ = 128.304, k+ = 0.0797981, epsilon+ = 5.73096e-09, omega+ = 7.97981e-07
ExecutionTime = 0.105596 s  ClockTime = 0 s

Time = 107s

DICPCG:  Solving for Ux, Initial residual = 0.0589766, Final residual = 5.9113e-09, No Iterations 3
DICPCG:  Solving for Uy, Initial residual = 0, Final residual = 0, No Iterations 0
smoothSolver:  Solving for epsilon, Initial residual = 0.21581, Final residual = 6.27063e-07, No Iterations 4
smoothSolver:  Solving for k, Initial residual = 0.0595284, Final residual = 3.15662e-07, No Iterations 7
Uncorrected Ubar = 9.85484, pressure gradient = 0.00524921
Rey = 314223, uTau = 0.0387173, nut+ = 17.6351, nuEff+ = 18.6351, y+ = 2419.83, u+ = 129.853, k+ = 0.0791432, epsilon+ = 3.03948e-06, omega+ = 0.00042672
ExecutionTime = 0.106484 s  ClockTime = 0 s

Time = 108s

DICPCG:  Solving for Ux, Initial residual = 0.00170204, Final residual = 9.77636e-09, No Iterations 3
DICPCG:  Solving for Uy, Initial residual = 0, Final residual = 0, No Iterations 0
smoothSolver:  Solving for epsilon, Initial residual = 0.176658, Final residual = 6.67199e-07, No Iterations 4
smoothSolver:  Solving for k, Initial residual = 0.0377832, Final residual = 5.52918e-07, No Iterations 5
Uncorrected Ubar = 10.1196, pressure gradient = -0.00295823
Rey = 274742, uTau = 0.0731094, nut+ = 74.9943, nuEff+ = 75.9943, y+ = 4569.34, u+ = 60.1273, k+ = 0.525215, epsilon+ = 2.90042e-07, omega+ = 6.13594e-06
ExecutionTime = 0.107427 s  ClockTime = 0 s

Time = 109s

DICPCG:  Solving for Ux, Initial residual = 0.0463865, Final residual = 7.49726e-09, No Iterations 3
DICPCG:  Solving for Uy, Initial residual = 0, Final residual = 0, No Iterations 0
smoothSolver:  Solving for epsilon, Initial residual = 0.525702, Final residual = 9.25609e-07, No Iterations 3
smoothSolver:  Solving for k, Initial residual = 0.161198, Final residual = 7.04294e-07, No Iterations 6
Uncorrected Ubar = 9.89474, pressure gradient = 0.00423237
Rey = 294259, uTau = 0.0744954, nut+ = 72.6698, nuEff+ = 73.6698, y+ = 4655.96, u+ = 63.2004, k+ = 0.472024, epsilon+ = 3.09688e-05, omega+ = 0.000728985
ExecutionTime = 0.10834 s  ClockTime = 0 s

Time = 110s

DICPCG:  Solving for Ux, Initial residual = 0.00271014, Final residual = 1.35529e-08, No Iterations 3
DICPCG:  Solving for Uy, Initial residual = 0, Final residual = 0, No Iterations 0
smoothSolver:  Solving for epsilon, Initial residual = 0.269819, Final residual = 3.54714e-07, No Iterations 4
smoothSolver:  Solving for k, Initial residual = 0.238525, Final residual = 4.35292e-07, No Iterations 6
Uncorrected Ubar = 10.0751, pressure gradient = -0.00116397
Rey = 249784, uTau = 0.0949779, nut+ = 140.072, nuEff+ = 141.072, y+ = 5936.12, u+ = 42.0787, k+ = 1.22812, epsilon+ = 1.05648e-05, omega+ = 9.55824e-05
ExecutionTime = 0.109201 s  ClockTime = 0 s

Time = 111s

DICPCG:  Solving for Ux, Initial residual = 0.0142074, Final residual = 3.27694e-08, No Iterations 3
DICPCG:  Solving for Uy, Initial residual = 0, Final residual = 0, No Iterations 0
smoothSolver:  Solving for epsilon, Initial residual = 0.17083, Final residual = 8.11103e-07, No Iterations 3
smoothSolver:  Solving for k, Initial residual = 0.214341, Final residual = 3.4277e-07, No Iterations 6
Uncorrected Ubar = 9.94351, pressure gradient = 0.0029031
Rey = 259243, uTau = 0.107053, nut+ = 171.684, nuEff+ = 172.684, y+ = 6690.83, u+ = 38.746, k+ = 1.51091, epsilon+ = 5.69309e-05, omega+ = 0.000418665
ExecutionTime = 0.110275 s  ClockTime = 0 s

Time = 112s

DICPCG:  Solving for Ux, Initial residual = 0.003843, Final residual = 3.70231e-08, No Iterations 3
DICPCG:  Solving for Uy, Initial residual = 0, Final residual = 0, No Iterations 0
smoothSolver:  Solving for epsilon, Initial residual = 0.21681, Final residual = 6.85619e-07, No Iterations 3
smoothSolver:  Solving for k, Initial residual = 0.245717, Final residual = 9.93461e-07, No Iterations 5
Uncorrected Ubar = 10.0401, pressure gradient = -0.000115082
Rey = 242163, uTau = 0.114689, nut+ = 211.177, nuEff+ = 212.177, y+ = 7168.08, u+ = 33.7835, k+ = 2.07263, epsilon+ = 8.44471e-05, omega+ = 0.000452709
ExecutionTime = 0.111388 s  ClockTime = 0 s

Time = 113s

[...]
DICPCG:  Solving for Uy, Initial residual = 0, Final residual = 0, No Iterations 0
smoothSolver:  Solving for epsilon, Initial residual = 0.000422565, Final residual = 3.77226e-07, No Iterations 6
smoothSolver:  Solving for k, Initial residual = 0.000556647, Final residual = 6.59065e-07, No Iterations 6
Uncorrected Ubar = 10, pressure gradient = 1.32527
Rey = 474079, uTau = 0.260424, nut+ = 557.819, nuEff+ = 558.819, y+ = 16276.5, u+ = 29.1266, k+ = 3.3565, epsilon+ = 0.000151408, omega+ = 0.00050121
ExecutionTime = 0.95891 s  ClockTime = 1 s

Time = 972s

DICPCG:  Solving for Ux, Initial residual = 0.000198395, Final residual = 2.03081e-08, No Iterations 1
DICPCG:  Solving for Uy, Initial residual = 0, Final residual = 0, No Iterations 0
smoothSolver:  Solving for epsilon, Initial residual = 0.00042089, Final residual = 3.76048e-07, No Iterations 6
smoothSolver:  Solving for k, Initial residual = 0.000554179, Final residual = 6.56201e-07, No Iterations 6
Uncorrected Ubar = 10, pressure gradient = 1.32545
Rey = 474087, uTau = 0.260428, nut+ = 557.826, nuEff+ = 558.826, y+ = 16276.7, u+ = 29.1266, k+ = 3.35649, epsilon+ = 0.000151405, omega+ = 0.000501202
ExecutionTime = 0.959758 s  ClockTime = 1 s

Time = 973s

DICPCG:  Solving for Ux, Initial residual = 0.000197633, Final residual = 2.02517e-08, No Iterations 1
DICPCG:  Solving for Uy, Initial residual = 0, Final residual = 0, No Iterations 0
smoothSolver:  Solving for epsilon, Initial residual = 0.000419222, Final residual = 3.74876e-07, No Iterations 6
smoothSolver:  Solving for k, Initial residual = 0.000551717, Final residual = 6.53345e-07, No Iterations 6
Uncorrected Ubar = 10, pressure gradient = 1.32562
Rey = 474095, uTau = 0.260432, nut+ = 557.833, nuEff+ = 558.833, y+ = 16277, u+ = 29.1267, k+ = 3.35649, epsilon+ = 0.000151403, omega+ = 0.000501195
ExecutionTime = 0.960751 s  ClockTime = 1 s

Time = 974s

DICPCG:  Solving for Ux, Initial residual = 0.000196873, Final residual = 2.0195e-08, No Iterations 1
DICPCG:  Solving for Uy, Initial residual = 0, Final residual = 0, No Iterations 0
smoothSolver:  Solving for epsilon, Initial residual = 0.000417563, Final residual = 3.73709e-07, No Iterations 6
smoothSolver:  Solving for k, Initial residual = 0.000549262, Final residual = 6.50496e-07, No Iterations 6
Uncorrected Ubar = 10, pressure gradient = 1.32578
Rey = 474102, uTau = 0.260435, nut+ = 557.84, nuEff+ = 558.84, y+ = 16277.2, u+ = 29.1268, k+ = 3.35648, epsilon+ = 0.0001514, omega+ = 0.000501187
ExecutionTime = 0.961827 s  ClockTime = 1 s

Time = 975s

DICPCG:  Solving for Ux, Initial residual = 0.000196115, Final residual = 2.0138e-08, No Iterations 1
DICPCG:  Solving for Uy, Initial residual = 0, Final residual = 0, No Iterations 0
smoothSolver:  Solving for epsilon, Initial residual = 0.000415912, Final residual = 3.72548e-07, No Iterations 6
smoothSolver:  Solving for k, Initial residual = 0.000546813, Final residual = 6.47653e-07, No Iterations 6
Uncorrected Ubar = 10, pressure gradient = 1.32595
Rey = 474110, uTau = 0.260439, nut+ = 557.847, nuEff+ = 558.847, y+ = 16277.4, u+ = 29.1268, k+ = 3.35648, epsilon+ = 0.000151398, omega+ = 0.00050118
ExecutionTime = 0.962701 s  ClockTime = 1 s

Time = 976s

DICPCG:  Solving for Ux, Initial residual = 0.00019536, Final residual = 2.00809e-08, No Iterations 1
DICPCG:  Solving for Uy, Initial residual = 0, Final residual = 0, No Iterations 0
smoothSolver:  Solving for epsilon, Initial residual = 0.00041427, Final residual = 3.71392e-07, No Iterations 6
smoothSolver:  Solving for k, Initial residual = 0.000544371, Final residual = 6.44817e-07, No Iterations 6
Uncorrected Ubar = 10, pressure gradient = 1.32612
Rey = 474117, uTau = 0.260443, nut+ = 557.854, nuEff+ = 558.854, y+ = 16277.7, u+ = 29.1269, k+ = 3.35647, epsilon+ = 0.000151396, omega+ = 0.000501172
ExecutionTime = 0.963549 s  ClockTime = 1 s

Time = 977s

DICPCG:  Solving for Ux, Initial residual = 0.000194607, Final residual = 2.00235e-08, No Iterations 1
DICPCG:  Solving for Uy, Initial residual = 0, Final residual = 0, No Iterations 0
smoothSolver:  Solving for epsilon, Initial residual = 0.000412635, Final residual = 3.70242e-07, No Iterations 6
smoothSolver:  Solving for k, Initial residual = 0.000541936, Final residual = 6.41989e-07, No Iterations 6
Uncorrected Ubar = 10, pressure gradient = 1.32629
Rey = 474125, uTau = 0.260446, nut+ = 557.861, nuEff+ = 558.861, y+ = 16277.9, u+ = 29.1269, k+ = 3.35647, epsilon+ = 0.000151393, omega+ = 0.000501165
ExecutionTime = 0.964475 s  ClockTime = 1 s

Time = 978s

DICPCG:  Solving for Ux, Initial residual = 0.000193856, Final residual = 1.99659e-08, No Iterations 1
DICPCG:  Solving for Uy, Initial residual = 0, Final residual = 0, No Iterations 0
smoothSolver:  Solving for epsilon, Initial residual = 0.000411009, Final residual = 3.69097e-07, No Iterations 6
smoothSolver:  Solving for k, Initial residual = 0.000539508, Final residual = 6.39169e-07, No Iterations 6
Uncorrected Ubar = 10, pressure gradient = 1.32645
Rey = 474132, uTau = 0.26045, nut+ = 557.868, nuEff+ = 558.868, y+ = 16278.1, u+ = 29.127, k+ = 3.35647, epsilon+ = 0.000151391, omega+ = 0.000501158
ExecutionTime = 0.96533 s  ClockTime = 1 s

Time = 979s

DICPCG:  Solving for Ux, Initial residual = 0.000193109, Final residual = 1.99081e-08, No Iterations 1
DICPCG:  Solving for Uy, Initial residual = 0, Final residual = 0, No Iterations 0
smoothSolver:  Solving for epsilon, Initial residual = 0.00040939, Final residual = 3.67957e-07, No Iterations 6
smoothSolver:  Solving for k, Initial residual = 0.00053709, Final residual = 6.36359e-07, No Iterations 6
Uncorrected Ubar = 10, pressure gradient = 1.32662
Rey = 474140, uTau = 0.260454, nut+ = 557.875, nuEff+ = 558.875, y+ = 16278.4, u+ = 29.127, k+ = 3.35646, epsilon+ = 0.000151388, omega+ = 0.000501151
ExecutionTime = 0.966175 s  ClockTime = 1 s

Time = 980s

DICPCG:  Solving for Ux, Initial residual = 0.000192363, Final residual = 1.985e-08, No Iterations 1
DICPCG:  Solving for Uy, Initial residual = 0, Final residual = 0, No Iterations 0
smoothSolver:  Solving for epsilon, Initial residual = 0.00040778, Final residual = 3.66823e-07, No Iterations 6
smoothSolver:  Solving for k, Initial residual = 0.000534682, Final residual = 6.33561e-07, No Iterations 6
Uncorrected Ubar = 10, pressure gradient = 1.32678
Rey = 474147, uTau = 0.260457, nut+ = 557.882, nuEff+ = 558.882, y+ = 16278.6, u+ = 29.1271, k+ = 3.35646, epsilon+ = 0.000151386, omega+ = 0.000501143
ExecutionTime = 0.967046 s  ClockTime = 1 s

Time = 981s

DICPCG:  Solving for Ux, Initial residual = 0.00019162, Final residual = 1.97918e-08, No Iterations 1
DICPCG:  Solving for Uy, Initial residual = 0, Final residual = 0, No Iterations 0
smoothSolver:  Solving for epsilon, Initial residual = 0.000406178, Final residual = 3.65695e-07, No Iterations 6
smoothSolver:  Solving for k, Initial residual = 0.000532284, Final residual = 6.30774e-07, No Iterations 6
Uncorrected Ubar = 10, pressure gradient = 1.32694
Rey = 474155, uTau = 0.260461, nut+ = 557.889, nuEff+ = 558.889, y+ = 16278.8, u+ = 29.1271, k+ = 3.35645, epsilon+ = 0.000151384, omega+ = 0.000501136
ExecutionTime = 0.967901 s  ClockTime = 1 s

Time = 982s

DICPCG:  Solving for Ux, Initial residual = 0.00019088, Final residual = 1.97334e-08, No Iterations 1
DICPCG:  Solving for Uy, Initial residual = 0, Final residual = 0, No Iterations 0
smoothSolver:  Solving for epsilon, Initial residual = 0.000404584, Final residual = 3.64572e-07, No Iterations 6
smoothSolver:  Solving for k, Initial residual = 0.000529896, Final residual = 6.27998e-07, No Iterations 6
Uncorrected Ubar = 10, pressure gradient = 1.3271
Rey = 474162, uTau = 0.260465, nut+ = 557.895, nuEff+ = 558.895, y+ = 16279, u+ = 29.1272, k+ = 3.35645, epsilon+ = 0.000151381, omega+ = 0.000501129
ExecutionTime = 0.968743 s  ClockTime = 1 s

Time = 983s

DICPCG:  Solving for Ux, Initial residual = 0.000190142, Final residual = 1.96748e-08, No Iterations 1
DICPCG:  Solving for Uy, Initial residual = 0, Final residual = 0, No Iterations 0
smoothSolver:  Solving for epsilon, Initial residual = 0.000402997, Final residual = 3.63454e-07, No Iterations 6
smoothSolver:  Solving for k, Initial residual = 0.000527518, Final residual = 6.25233e-07, No Iterations 6
Uncorrected Ubar = 10, pressure gradient = 1.32726
Rey = 474170, uTau = 0.260468, nut+ = 557.902, nuEff+ = 558.902, y+ = 16279.3, u+ = 29.1272, k+ = 3.35644, epsilon+ = 0.000151379, omega+ = 0.000501122
ExecutionTime = 0.969965 s  ClockTime = 1 s

Time = 984s

DICPCG:  Solving for Ux, Initial residual = 0.000189406, Final residual = 1.9616e-08, No Iterations 1
DICPCG:  Solving for Uy, Initial residual = 0, Final residual = 0, No Iterations 0
smoothSolver:  Solving for epsilon, Initial residual = 0.000401419, Final residual = 3.62342e-07, No Iterations 6
smoothSolver:  Solving for k, Initial residual = 0.000525151, Final residual = 6.22479e-07, No Iterations 6
Uncorrected Ubar = 10, pressure gradient = 1.32742
Rey = 474177, uTau = 0.260472, nut+ = 557.909, nuEff+ = 558.909, y+ = 16279.5, u+ = 29.1273, k+ = 3.35644, epsilon+ = 0.000151377, omega+ = 0.000501115
ExecutionTime = 0.970903 s  ClockTime = 1 s

Time = 985s

DICPCG:  Solving for Ux, Initial residual = 0.000188673, Final residual = 1.9557e-08, No Iterations 1
DICPCG:  Solving for Uy, Initial residual = 0, Final residual = 0, No Iterations 0
smoothSolver:  Solving for epsilon, Initial residual = 0.000399849, Final residual = 3.61235e-07, No Iterations 6
smoothSolver:  Solving for k, Initial residual = 0.000522793, Final residual = 6.19736e-07, No Iterations 6
Uncorrected Ubar = 10, pressure gradient = 1.32758
Rey = 474184, uTau = 0.260475, nut+ = 557.916, nuEff+ = 558.916, y+ = 16279.7, u+ = 29.1273, k+ = 3.35644, epsilon+ = 0.000151374, omega+ = 0.000501108
ExecutionTime = 0.971756 s  ClockTime = 1 s

Time = 986s

DICPCG:  Solving for Ux, Initial residual = 0.000187942, Final residual = 1.94978e-08, No Iterations 1
DICPCG:  Solving for Uy, Initial residual = 0, Final residual = 0, No Iterations 0
smoothSolver:  Solving for epsilon, Initial residual = 0.000398287, Final residual = 3.60134e-07, No Iterations 6
smoothSolver:  Solving for k, Initial residual = 0.000520445, Final residual = 6.17005e-07, No Iterations 6
Uncorrected Ubar = 10, pressure gradient = 1.32774
Rey = 474191, uTau = 0.260479, nut+ = 557.922, nuEff+ = 558.922, y+ = 16279.9, u+ = 29.1274, k+ = 3.35643, epsilon+ = 0.000151372, omega+ = 0.000501101
ExecutionTime = 0.972602 s  ClockTime = 1 s

Time = 987s

DICPCG:  Solving for Ux, Initial residual = 0.000187214, Final residual = 1.94385e-08, No Iterations 1
DICPCG:  Solving for Uy, Initial residual = 0, Final residual = 0, No Iterations 0
smoothSolver:  Solving for epsilon, Initial residual = 0.000396732, Final residual = 3.59037e-07, No Iterations 6
smoothSolver:  Solving for k, Initial residual = 0.000518108, Final residual = 6.14284e-07, No Iterations 6
Uncorrected Ubar = 10, pressure gradient = 1.3279
Rey = 474199, uTau = 0.260482, nut+ = 557.929, nuEff+ = 558.929, y+ = 16280.2, u+ = 29.1274, k+ = 3.35643, epsilon+ = 0.00015137, omega+ = 0.000501094
ExecutionTime = 0.973451 s  ClockTime = 1 s

Time = 988s

DICPCG:  Solving for Ux, Initial residual = 0.000186488, Final residual = 1.9379e-08, No Iterations 1
DICPCG:  Solving for Uy, Initial residual = 0, Final residual = 0, No Iterations 0
smoothSolver:  Solving for epsilon, Initial residual = 0.000395185, Final residual = 3.57947e-07, No Iterations 6
smoothSolver:  Solving for k, Initial residual = 0.000515781, Final residual = 6.11575e-07, No Iterations 6
Uncorrected Ubar = 10, pressure gradient = 1.32806
Rey = 474206, uTau = 0.260486, nut+ = 557.936, nuEff+ = 558.936, y+ = 16280.4, u+ = 29.1275, k+ = 3.35642, epsilon+ = 0.000151367, omega+ = 0.000501087
ExecutionTime = 0.974357 s  ClockTime = 1 s

Time = 989s

DICPCG:  Solving for Ux, Initial residual = 0.000185764, Final residual = 1.93194e-08, No Iterations 1
DICPCG:  Solving for Uy, Initial residual = 0, Final residual = 0, No Iterations 0
smoothSolver:  Solving for epsilon, Initial residual = 0.000393647, Final residual = 3.56861e-07, No Iterations 6
smoothSolver:  Solving for k, Initial residual = 0.000513464, Final residual = 6.08878e-07, No Iterations 6
Uncorrected Ubar = 10, pressure gradient = 1.32821
Rey = 474213, uTau = 0.260489, nut+ = 557.942, nuEff+ = 558.942, y+ = 16280.6, u+ = 29.1275, k+ = 3.35642, epsilon+ = 0.000151365, omega+ = 0.00050108
ExecutionTime = 0.975254 s  ClockTime = 1 s

Time = 990s

DICPCG:  Solving for Ux, Initial residual = 0.000185043, Final residual = 1.92597e-08, No Iterations 1
DICPCG:  Solving for Uy, Initial residual = 0, Final residual = 0, No Iterations 0
smoothSolver:  Solving for epsilon, Initial residual = 0.000392116, Final residual = 3.55781e-07, No Iterations 6
smoothSolver:  Solving for k, Initial residual = 0.000511157, Final residual = 6.06191e-07, No Iterations 6
Uncorrected Ubar = 10, pressure gradient = 1.32837
Rey = 474220, uTau = 0.260493, nut+ = 557.949, nuEff+ = 558.949, y+ = 16280.8, u+ = 29.1276, k+ = 3.35642, epsilon+ = 0.000151363, omega+ = 0.000501073
ExecutionTime = 0.976117 s  ClockTime = 1 s

Time = 991s

DICPCG:  Solving for Ux, Initial residual = 0.000184325, Final residual = 1.91998e-08, No Iterations 1
DICPCG:  Solving for Uy, Initial residual = 0, Final residual = 0, No Iterations 0
smoothSolver:  Solving for epsilon, Initial residual = 0.000390592, Final residual = 3.54706e-07, No Iterations 6
smoothSolver:  Solving for k, Initial residual = 0.00050886, Final residual = 6.03516e-07, No Iterations 6
Uncorrected Ubar = 10, pressure gradient = 1.32852
Rey = 474227, uTau = 0.260496, nut+ = 557.955, nuEff+ = 558.955, y+ = 16281, u+ = 29.1276, k+ = 3.35641, epsilon+ = 0.000151361, omega+ = 0.000501066
ExecutionTime = 0.976984 s  ClockTime = 1 s

Time = 992s

DICPCG:  Solving for Ux, Initial residual = 0.000183608, Final residual = 1.91397e-08, No Iterations 1
DICPCG:  Solving for Uy, Initial residual = 0, Final residual = 0, No Iterations 0
smoothSolver:  Solving for epsilon, Initial residual = 0.000389077, Final residual = 3.53636e-07, No Iterations 6
smoothSolver:  Solving for k, Initial residual = 0.000506574, Final residual = 6.00852e-07, No Iterations 6
Uncorrected Ubar = 10, pressure gradient = 1.32868
Rey = 474234, uTau = 0.2605, nut+ = 557.962, nuEff+ = 558.962, y+ = 16281.2, u+ = 29.1276, k+ = 3.35641, epsilon+ = 0.000151358, omega+ = 0.000501059
ExecutionTime = 0.978195 s  ClockTime = 1 s

Time = 993s

DICPCG:  Solving for Ux, Initial residual = 0.000182894, Final residual = 1.90796e-08, No Iterations 1
DICPCG:  Solving for Uy, Initial residual = 0, Final residual = 0, No Iterations 0
smoothSolver:  Solving for epsilon, Initial residual = 0.000387569, Final residual = 3.52571e-07, No Iterations 6
smoothSolver:  Solving for k, Initial residual = 0.000504298, Final residual = 5.982e-07, No Iterations 6
Uncorrected Ubar = 10, pressure gradient = 1.32883
Rey = 474241, uTau = 0.260503, nut+ = 557.968, nuEff+ = 558.968, y+ = 16281.5, u+ = 29.1277, k+ = 3.35641, epsilon+ = 0.000151356, omega+ = 0.000501052
ExecutionTime = 0.979088 s  ClockTime = 1 s

Time = 994s

DICPCG:  Solving for Ux, Initial residual = 0.000182183, Final residual = 1.90194e-08, No Iterations 1
DICPCG:  Solving for Uy, Initial residual = 0, Final residual = 0, No Iterations 0
smoothSolver:  Solving for epsilon, Initial residual = 0.000386069, Final residual = 3.51512e-07, No Iterations 6
smoothSolver:  Solving for k, Initial residual = 0.000502032, Final residual = 5.95559e-07, No Iterations 6
Uncorrected Ubar = 10, pressure gradient = 1.32898
Rey = 474248, uTau = 0.260507, nut+ = 557.975, nuEff+ = 558.975, y+ = 16281.7, u+ = 29.1277, k+ = 3.3564, epsilon+ = 0.000151354, omega+ = 0.000501045
ExecutionTime = 0.979936 s  ClockTime = 1 s

Time = 995s

DICPCG:  Solving for Ux, Initial residual = 0.000181474, Final residual = 1.8959e-08, No Iterations 1
DICPCG:  Solving for Uy, Initial residual = 0, Final residual = 0, No Iterations 0
smoothSolver:  Solving for epsilon, Initial residual = 0.000384576, Final residual = 3.50458e-07, No Iterations 6
smoothSolver:  Solving for k, Initial residual = 0.000499776, Final residual = 5.92929e-07, No Iterations 6
Uncorrected Ubar = 10, pressure gradient = 1.32913
Rey = 474255, uTau = 0.26051, nut+ = 557.981, nuEff+ = 558.981, y+ = 16281.9, u+ = 29.1278, k+ = 3.3564, epsilon+ = 0.000151352, omega+ = 0.000501038
ExecutionTime = 0.980796 s  ClockTime = 1 s

Time = 996s

DICPCG:  Solving for Ux, Initial residual = 0.000180768, Final residual = 1.88985e-08, No Iterations 1
DICPCG:  Solving for Uy, Initial residual = 0, Final residual = 0, No Iterations 0
smoothSolver:  Solving for epsilon, Initial residual = 0.000383091, Final residual = 3.49408e-07, No Iterations 6
smoothSolver:  Solving for k, Initial residual = 0.00049753, Final residual = 5.9031e-07, No Iterations 6
Uncorrected Ubar = 10, pressure gradient = 1.32929
Rey = 474262, uTau = 0.260514, nut+ = 557.988, nuEff+ = 558.988, y+ = 16282.1, u+ = 29.1278, k+ = 3.35639, epsilon+ = 0.000151349, omega+ = 0.000501032
ExecutionTime = 0.981709 s  ClockTime = 1 s

Time = 997s

DICPCG:  Solving for Ux, Initial residual = 0.000180063, Final residual = 1.8838e-08, No Iterations 1
DICPCG:  Solving for Uy, Initial residual = 0, Final residual = 0, No Iterations 0
smoothSolver:  Solving for epsilon, Initial residual = 0.000381614, Final residual = 3.48364e-07, No Iterations 6
smoothSolver:  Solving for k, Initial residual = 0.000495295, Final residual = 5.87703e-07, No Iterations 6
Uncorrected Ubar = 10, pressure gradient = 1.32944
Rey = 474269, uTau = 0.260517, nut+ = 557.994, nuEff+ = 558.994, y+ = 16282.3, u+ = 29.1279, k+ = 3.35639, epsilon+ = 0.000151347, omega+ = 0.000501025
ExecutionTime = 0.982559 s  ClockTime = 1 s

Time = 998s

DICPCG:  Solving for Ux, Initial residual = 0.000179362, Final residual = 1.87774e-08, No Iterations 1
DICPCG:  Solving for Uy, Initial residual = 0, Final residual = 0, No Iterations 0
smoothSolver:  Solving for epsilon, Initial residual = 0.000380144, Final residual = 3.47326e-07, No Iterations 6
smoothSolver:  Solving for k, Initial residual = 0.000493069, Final residual = 5.85107e-07, No Iterations 6
Uncorrected Ubar = 10, pressure gradient = 1.32958
Rey = 474276, uTau = 0.26052, nut+ = 558.001, nuEff+ = 559.001, y+ = 16282.5, u+ = 29.1279, k+ = 3.35639, epsilon+ = 0.000151345, omega+ = 0.000501018
ExecutionTime = 0.983404 s  ClockTime = 1 s

Time = 999s

DICPCG:  Solving for Ux, Initial residual = 0.000178662, Final residual = 1.87167e-08, No Iterations 1
DICPCG:  Solving for Uy, Initial residual = 0, Final residual = 0, No Iterations 0
smoothSolver:  Solving for epsilon, Initial residual = 0.000378681, Final residual = 3.46292e-07, No Iterations 6
smoothSolver:  Solving for k, Initial residual = 0.000490855, Final residual = 5.82523e-07, No Iterations 6
Uncorrected Ubar = 10, pressure gradient = 1.32973
Rey = 474283, uTau = 0.260524, nut+ = 558.007, nuEff+ = 559.007, y+ = 16282.7, u+ = 29.128, k+ = 3.35638, epsilon+ = 0.000151343, omega+ = 0.000501012
ExecutionTime = 0.984245 s  ClockTime = 1 s

Time = 1000s

DICPCG:  Solving for Ux, Initial residual = 0.000177965, Final residual = 1.86559e-08, No Iterations 1
DICPCG:  Solving for Uy, Initial residual = 0, Final residual = 0, No Iterations 0
smoothSolver:  Solving for epsilon, Initial residual = 0.000377226, Final residual = 3.45263e-07, No Iterations 6
smoothSolver:  Solving for k, Initial residual = 0.000488651, Final residual = 5.7995e-07, No Iterations 6
Uncorrected Ubar = 10, pressure gradient = 1.32988
Rey = 474290, uTau = 0.260527, nut+ = 558.013, nuEff+ = 559.013, y+ = 16282.9, u+ = 29.128, k+ = 3.35638, epsilon+ = 0.000151341, omega+ = 0.000501005
ExecutionTime = 0.987936 s  ClockTime = 1 s

End

