/*---------------------------------------------------------------------------*\
  =========                 |
  \\      /  F ield         | OpenFOAM: The Open Source CFD Toolbox
   \\    /   O peration     | Website:  https://openfoam.org
    \\  /    A nd           | Version:  12
     \\/     M anipulation  |
\*---------------------------------------------------------------------------*/
Build  : 12-cc05c1b03c38
Exec   : boundaryFoam
Date   : Oct 10 2024
Time   : 23:10:36
Host   : "DESKTOP-KBPC6IC"
PID    : 27456
I/O    : uncollated
Case   : /home/as/openfoam/OpenFOAM-12/test/boundaryLayer/boundaryWallFunctionsProfile
nProcs : 1
sigFpe : Enabling floating point exception trapping (FOAM_SIGFPE).
fileModificationChecking : Monitoring run-time modified files using timeStampMaster (fileModificationSkew 10)
allowSystemOperations : Allowing user-supplied system call operations

// * * * * * * * * * * * * * * * * * * * * * * * * * * * * * * * * * * * * * //
Create time

Create mesh for time = 0

Reading field U

Creating face flux

Selecting viscosity model constant
Selecting turbulence model type RAS
Selecting RAS turbulence model kEpsilon
RAS
{
    model           kEpsilon;
    turbulence      on;
    printCoeffs     on;
    Cmu             0.09;
    C1              1.44;
    C2              1.92;
    C3              0;
    sigmak          1;
    sigmaEps        1.3;
}

No fvModels present
No fvConstraints present
Generating wall data for patch: lowerWall
    Height to first cell centre y0 = 0.000625

Starting time loop

Time = 1s

DICPCG:  Solving for Ux, Initial residual = 1, Final residual = 1.09446e-08, No Iterations 4
DICPCG:  Solving for Uy, Initial residual = 0, Final residual = 0, No Iterations 0
smoothSolver:  Solving for epsilon, Initial residual = 0.0199651, Final residual = 5.53936e-07, No Iterations 8
smoothSolver:  Solving for k, Initial residual = 1, Final residual = 8.01552e-07, No Iterations 9
Uncorrected Ubar = 0.988503, pressure gradient = 247089
Rey = 0.604411, uTau = 12.439, nut+ = 0, nuEff+ = 1, y+ = 0.777438, u+ = 0.777438, k+ = 2.17092e-12, epsilon+ = 2.13858e-11, omega+ = 109.456
ExecutionTime = 0.011124 s  ClockTime = 0 s

Time = 2s

DICPCG:  Solving for Ux, Initial residual = 0.998752, Final residual = 1.35076e-07, No Iterations 3
DICPCG:  Solving for Uy, Initial residual = 0, Final residual = 0, No Iterations 0
smoothSolver:  Solving for epsilon, Initial residual = 0.227417, Final residual = 4.56891e-07, No Iterations 5
smoothSolver:  Solving for k, Initial residual = 0.164452, Final residual = 3.87972e-07, No Iterations 9
Uncorrected Ubar = 27.7426, pressure gradient = -239402
Rey = 0.153598, uTau = 6.27065, nut+ = 0, nuEff+ = 1, y+ = 0.391916, u+ = 0.391916, k+ = 2.97741e-12, epsilon+ = 1.11234e-10, omega+ = 415.102
ExecutionTime = 0.012195 s  ClockTime = 0 s

Time = 3s

DICPCG:  Solving for Ux, Initial residual = 0.910439, Final residual = 1.4179e-07, No Iterations 3
DICPCG:  Solving for Uy, Initial residual = 0, Final residual = 0, No Iterations 0
smoothSolver:  Solving for epsilon, Initial residual = 0.191442, Final residual = 9.99685e-07, No Iterations 5
smoothSolver:  Solving for k, Initial residual = 0.0591196, Final residual = 3.45859e-07, No Iterations 9
Uncorrected Ubar = -7.31679, pressure gradient = 235413
Rey = 0.524071, uTau = 11.5828, nut+ = 0, nuEff+ = 1, y+ = 0.723927, u+ = 0.723927, k+ = 3.25801e-13, epsilon+ = 3.33023e-12, omega+ = 113.574
ExecutionTime = 0.013789 s  ClockTime = 0 s

Time = 4s

DICPCG:  Solving for Ux, Initial residual = 0.984613, Final residual = 1.32823e-07, No Iterations 3
DICPCG:  Solving for Uy, Initial residual = 0, Final residual = 0, No Iterations 0
smoothSolver:  Solving for epsilon, Initial residual = 0.146533, Final residual = 7.00286e-07, No Iterations 6
smoothSolver:  Solving for k, Initial residual = 0.0285028, Final residual = 3.4025e-07, No Iterations 9
Uncorrected Ubar = 26.9162, pressure gradient = -228418
Rey = 0.185619, uTau = 6.89337, nut+ = 0, nuEff+ = 1, y+ = 0.430836, u+ = 0.430836, k+ = 3.93877e-13, epsilon+ = 9.91119e-12, omega+ = 279.591
ExecutionTime = 0.015178 s  ClockTime = 0 s

Time = 5s

DICPCG:  Solving for Ux, Initial residual = 0.898475, Final residual = 1.3768e-07, No Iterations 3
DICPCG:  Solving for Uy, Initial residual = 0, Final residual = 0, No Iterations 0
smoothSolver:  Solving for epsilon, Initial residual = 0.0994671, Final residual = 4.69436e-07, No Iterations 7
smoothSolver:  Solving for k, Initial residual = 0.0174216, Final residual = 3.40178e-07, No Iterations 9
Uncorrected Ubar = -6.51343, pressure gradient = 224369
Rey = 0.470784, uTau = 10.9782, nut+ = 0, nuEff+ = 1, y+ = 0.686137, u+ = 0.686137, k+ = 8.39687e-14, epsilon+ = 6.59736e-13, omega+ = 87.2992
ExecutionTime = 0.01613 s  ClockTime = 0 s

Time = 6s

DICPCG:  Solving for Ux, Initial residual = 0.973089, Final residual = 1.3437e-07, No Iterations 3
DICPCG:  Solving for Uy, Initial residual = 0, Final residual = 0, No Iterations 0
smoothSolver:  Solving for epsilon, Initial residual = 0.0594445, Final residual = 9.31058e-07, No Iterations 7
smoothSolver:  Solving for k, Initial residual = 0.0126924, Final residual = 3.35865e-07, No Iterations 9
Uncorrected Ubar = 26.1291, pressure gradient = -217881
Rey = 0.198383, uTau = 7.12643, nut+ = 0, nuEff+ = 1, y+ = 0.445402, u+ = 0.445402, k+ = 1.42517e-13, epsilon+ = 2.00891e-12, omega+ = 156.621
ExecutionTime = 0.017003 s  ClockTime = 0 s

Time = 7s

DICPCG:  Solving for Ux, Initial residual = 0.887109, Final residual = 1.336e-07, No Iterations 3
DICPCG:  Solving for Uy, Initial residual = 0, Final residual = 0, No Iterations 0
smoothSolver:  Solving for epsilon, Initial residual = 0.0360848, Final residual = 3.58365e-07, No Iterations 8
smoothSolver:  Solving for k, Initial residual = 0.0106712, Final residual = 3.2826e-07, No Iterations 9
Uncorrected Ubar = -5.74674, pressure gradient = 213884
Rey = 0.432979, uTau = 10.5282, nut+ = 0, nuEff+ = 1, y+ = 0.658011, u+ = 0.658011, k+ = 5.64226e-14, epsilon+ = 3.01626e-13, omega+ = 59.3982
ExecutionTime = 0.017865 s  ClockTime = 0 s

Time = 8s

DICPCG:  Solving for Ux, Initial residual = 0.962749, Final residual = 1.35037e-07, No Iterations 3
DICPCG:  Solving for Uy, Initial residual = 0, Final residual = 0, No Iterations 0
smoothSolver:  Solving for epsilon, Initial residual = 0.0206441, Final residual = 3.98308e-07, No Iterations 8
smoothSolver:  Solving for k, Initial residual = 0.0093737, Final residual = 9.85318e-07, No Iterations 8
Uncorrected Ubar = 25.3791, pressure gradient = -207800
Rey = 0.201141, uTau = 7.1758, nut+ = 0, nuEff+ = 1, y+ = 0.448488, u+ = 0.448488, k+ = 1.16099e-13, epsilon+ = 1.20767e-12, omega+ = 115.578
ExecutionTime = 0.019412 s  ClockTime = 0 s

Time = 9s

DICPCG:  Solving for Ux, Initial residual = 0.87695, Final residual = 1.30646e-07, No Iterations 3
DICPCG:  Solving for Uy, Initial residual = 0, Final residual = 0, No Iterations 0
smoothSolver:  Solving for epsilon, Initial residual = 0.0149548, Final residual = 3.88145e-07, No Iterations 8
smoothSolver:  Solving for k, Initial residual = 0.00849765, Final residual = 9.50733e-07, No Iterations 8
Uncorrected Ubar = -5.01536, pressure gradient = 203911
Rey = 0.403762, uTau = 10.1668, nut+ = 0, nuEff+ = 1, y+ = 0.635423, u+ = 0.635423, k+ = 5.60335e-14, epsilon+ = 2.86488e-13, omega+ = 56.8089
ExecutionTime = 0.020331 s  ClockTime = 0 s

Time = 10s

DICPCG:  Solving for Ux, Initial residual = 0.953193, Final residual = 1.34895e-07, No Iterations 3
DICPCG:  Solving for Uy, Initial residual = 0, Final residual = 0, No Iterations 0
smoothSolver:  Solving for epsilon, Initial residual = 0.00935846, Final residual = 3.55754e-07, No Iterations 8
smoothSolver:  Solving for k, Initial residual = 0.00782368, Final residual = 9.09191e-07, No Iterations 8
Uncorrected Ubar = 24.6641, pressure gradient = -198170
Rey = 0.198759, uTau = 7.13318, nut+ = 0, nuEff+ = 1, y+ = 0.445824, u+ = 0.445824, k+ = 1.12742e-13, epsilon+ = 1.14538e-12, omega+ = 112.882
ExecutionTime = 0.021204 s  ClockTime = 0 s

Time = 11s

DICPCG:  Solving for Ux, Initial residual = 0.867278, Final residual = 1.28379e-07, No Iterations 3
DICPCG:  Solving for Uy, Initial residual = 0, Final residual = 0, No Iterations 0
smoothSolver:  Solving for epsilon, Initial residual = 0.0086561, Final residual = 3.25808e-07, No Iterations 8
smoothSolver:  Solving for k, Initial residual = 0.00745396, Final residual = 8.80341e-07, No Iterations 8
Uncorrected Ubar = -4.31781, pressure gradient = 194415
Rey = 0.379635, uTau = 9.85832, nut+ = 0, nuEff+ = 1, y+ = 0.616145, u+ = 0.616145, k+ = 5.74687e-14, epsilon+ = 3.10963e-13, omega+ = 60.1221
ExecutionTime = 0.022089 s  ClockTime = 0 s

Time = 12s

DICPCG:  Solving for Ux, Initial residual = 0.941103, Final residual = 1.33881e-07, No Iterations 3
DICPCG:  Solving for Uy, Initial residual = 0, Final residual = 0, No Iterations 0
smoothSolver:  Solving for epsilon, Initial residual = 0.00578779, Final residual = 9.81861e-07, No Iterations 7
smoothSolver:  Solving for k, Initial residual = 0.00691444, Final residual = 8.44547e-07, No Iterations 8
Uncorrected Ubar = 23.9825, pressure gradient = -188977
Rey = 0.193665, uTau = 7.04119, nut+ = 0, nuEff+ = 1, y+ = 0.440074, u+ = 0.440074, k+ = 1.11308e-13, epsilon+ = 1.16339e-12, omega+ = 116.133
ExecutionTime = 0.023107 s  ClockTime = 0 s

Time = 13s

DICPCG:  Solving for Ux, Initial residual = 0.858012, Final residual = 1.26509e-07, No Iterations 3
DICPCG:  Solving for Uy, Initial residual = 0, Final residual = 0, No Iterations 0
smoothSolver:  Solving for epsilon, Initial residual = 0.0062614, Final residual = 9.07482e-07, No Iterations 7
smoothSolver:  Solving for k, Initial residual = 0.00673451, Final residual = 8.21426e-07, No Iterations 8
Uncorrected Ubar = -3.65259, pressure gradient = 185368
Rey = 0.358798, uTau = 9.58396, nut+ = 0, nuEff+ = 1, y+ = 0.598998, u+ = 0.598998, k+ = 5.8394e-14, epsilon+ = 3.34895e-13, omega+ = 63.7231
ExecutionTime = 0.024045 s  ClockTime = 0 s

Time = 14s

DICPCG:  Solving for Ux, Initial residual = 0.928366, Final residual = 1.32498e-07, No Iterations 3
DICPCG:  Solving for Uy, Initial residual = 0, Final residual = 0, No Iterations 0
smoothSolver:  Solving for epsilon, Initial residual = 0.00420155, Final residual = 8.01321e-07, No Iterations 7
smoothSolver:  Solving for k, Initial residual = 0.00628268, Final residual = 7.90841e-07, No Iterations 8
Uncorrected Ubar = 23.3326, pressure gradient = -180204
Rey = 0.187114, uTau = 6.92107, nut+ = 0, nuEff+ = 1, y+ = 0.432567, u+ = 0.432567, k+ = 1.10461e-13, epsilon+ = 1.19684e-12, omega+ = 120.389
ExecutionTime = 0.025128 s  ClockTime = 0 s

Time = 15s

DICPCG:  Solving for Ux, Initial residual = 0.848695, Final residual = 1.24816e-07, No Iterations 3
DICPCG:  Solving for Uy, Initial residual = 0, Final residual = 0, No Iterations 0
smoothSolver:  Solving for epsilon, Initial residual = 0.00496731, Final residual = 7.52576e-07, No Iterations 7
smoothSolver:  Solving for k, Initial residual = 0.00617969, Final residual = 7.71697e-07, No Iterations 8
Uncorrected Ubar = -3.01823, pressure gradient = 176747
Rey = 0.340273, uTau = 9.33327, nut+ = 0, nuEff+ = 1, y+ = 0.583329, u+ = 0.583329, k+ = 5.9082e-14, epsilon+ = 3.57017e-13, omega+ = 67.1416
ExecutionTime = 0.026044 s  ClockTime = 0 s

Time = 16s

DICPCG:  Solving for Ux, Initial residual = 0.915577, Final residual = 1.30955e-07, No Iterations 3
DICPCG:  Solving for Uy, Initial residual = 0, Final residual = 0, No Iterations 0
smoothSolver:  Solving for epsilon, Initial residual = 0.00326713, Final residual = 6.67911e-07, No Iterations 7
smoothSolver:  Solving for k, Initial residual = 0.00579652, Final residual = 7.45253e-07, No Iterations 8
Uncorrected Ubar = 22.713, pressure gradient = -171835
Rey = 0.179788, uTau = 6.78422, nut+ = 0, nuEff+ = 1, y+ = 0.424014, u+ = 0.424014, k+ = 1.10359e-13, epsilon+ = 1.24392e-12, omega+ = 125.24
ExecutionTime = 0.026905 s  ClockTime = 0 s

Time = 17s

DICPCG:  Solving for Ux, Initial residual = 0.83957, Final residual = 1.23258e-07, No Iterations 3
DICPCG:  Solving for Uy, Initial residual = 0, Final residual = 0, No Iterations 0
smoothSolver:  Solving for epsilon, Initial residual = 0.00409974, Final residual = 6.35015e-07, No Iterations 7
smoothSolver:  Solving for k, Initial residual = 0.0057352, Final residual = 7.29488e-07, No Iterations 8
Uncorrected Ubar = -2.41333, pressure gradient = 168530
Rey = 0.323487, uTau = 9.10015, nut+ = 0, nuEff+ = 1, y+ = 0.568759, u+ = 0.568759, k+ = 5.97759e-14, epsilon+ = 3.79213e-13, omega+ = 70.4879
ExecutionTime = 0.027788 s  ClockTime = 0 s

Time = 18s

DICPCG:  Solving for Ux, Initial residual = 0.902883, Final residual = 1.29336e-07, No Iterations 3
DICPCG:  Solving for Uy, Initial residual = 0, Final residual = 0, No Iterations 0
smoothSolver:  Solving for epsilon, Initial residual = 0.00262578, Final residual = 5.62763e-07, No Iterations 7
smoothSolver:  Solving for k, Initial residual = 0.00540564, Final residual = 7.06286e-07, No Iterations 8
Uncorrected Ubar = 22.1222, pressure gradient = -163852
Rey = 0.172079, uTau = 6.63718, nut+ = 0, nuEff+ = 1, y+ = 0.414824, u+ = 0.414824, k+ = 1.11031e-13, epsilon+ = 1.30604e-12, omega+ = 130.699
ExecutionTime = 0.028694 s  ClockTime = 0 s

Time = 19s

DICPCG:  Solving for Ux, Initial residual = 0.830289, Final residual = 1.2174e-07, No Iterations 3
DICPCG:  Solving for Uy, Initial residual = 0, Final residual = 0, No Iterations 0
smoothSolver:  Solving for epsilon, Initial residual = 0.00345876, Final residual = 5.42962e-07, No Iterations 7
smoothSolver:  Solving for k, Initial residual = 0.00536512, Final residual = 6.9262e-07, No Iterations 8
Uncorrected Ubar = -1.83652, pressure gradient = 160698
Rey = 0.308082, uTau = 8.88082, nut+ = 0, nuEff+ = 1, y+ = 0.555051, u+ = 0.555051, k+ = 6.0573e-14, epsilon+ = 4.02595e-13, omega+ = 73.8493
ExecutionTime = 0.029896 s  ClockTime = 0 s

Time = 20s

DICPCG:  Solving for Ux, Initial residual = 0.890261, Final residual = 1.27673e-07, No Iterations 3
DICPCG:  Solving for Uy, Initial residual = 0, Final residual = 0, No Iterations 0
smoothSolver:  Solving for epsilon, Initial residual = 0.00215109, Final residual = 4.79636e-07, No Iterations 7
smoothSolver:  Solving for k, Initial residual = 0.00507773, Final residual = 6.7199e-07, No Iterations 8
Uncorrected Ubar = 21.5588, pressure gradient = -156237
Rey = 0.164224, uTau = 6.48394, nut+ = 0, nuEff+ = 1, y+ = 0.405246, u+ = 0.405246, k+ = 1.12423e-13, epsilon+ = 1.38389e-12, omega+ = 136.774
ExecutionTime = 0.03108 s  ClockTime = 0 s

Time = 21s

DICPCG:  Solving for Ux, Initial residual = 0.820832, Final residual = 1.20237e-07, No Iterations 3
DICPCG:  Solving for Uy, Initial residual = 0, Final residual = 0, No Iterations 0
smoothSolver:  Solving for epsilon, Initial residual = 0.00297299, Final residual = 4.66415e-07, No Iterations 7
smoothSolver:  Solving for k, Initial residual = 0.00505215, Final residual = 6.60251e-07, No Iterations 8
Uncorrected Ubar = -1.28651, pressure gradient = 153232
Rey = 0.293819, uTau = 8.67281, nut+ = 0, nuEff+ = 1, y+ = 0.542051, u+ = 0.542051, k+ = 6.15046e-14, epsilon+ = 4.27722e-13, omega+ = 77.2701
ExecutionTime = 0.031983 s  ClockTime = 0 s

Time = 22s

DICPCG:  Solving for Ux, Initial residual = 0.877489, Final residual = 1.25951e-07, No Iterations 3
DICPCG:  Solving for Uy, Initial residual = 0, Final residual = 0, No Iterations 0
smoothSolver:  Solving for epsilon, Initial residual = 0.00178476, Final residual = 4.11819e-07, No Iterations 7
smoothSolver:  Solving for k, Initial residual = 0.00480051, Final residual = 6.41983e-07, No Iterations 8
Uncorrected Ubar = 21.0216, pressure gradient = -148975
Rey = 0.156371, uTau = 6.32701, nut+ = 0, nuEff+ = 1, y+ = 0.395438, u+ = 0.395438, k+ = 1.14472e-13, epsilon+ = 1.47809e-12, omega+ = 143.469
ExecutionTime = 0.032933 s  ClockTime = 0 s

Time = 23s

DICPCG:  Solving for Ux, Initial residual = 0.811346, Final residual = 1.18758e-07, No Iterations 3
DICPCG:  Solving for Uy, Initial residual = 0, Final residual = 0, No Iterations 0
smoothSolver:  Solving for epsilon, Initial residual = 0.00258112, Final residual = 4.04351e-07, No Iterations 7
smoothSolver:  Solving for k, Initial residual = 0.00478406, Final residual = 6.31676e-07, No Iterations 8
Uncorrected Ubar = -0.762041, pressure gradient = 146113
Rey = 0.280531, uTau = 8.47442, nut+ = 0, nuEff+ = 1, y+ = 0.529651, u+ = 0.529651, k+ = 6.25769e-14, epsilon+ = 4.54912e-13, omega+ = 80.7739
ExecutionTime = 0.033857 s  ClockTime = 0 s

Time = 24s

DICPCG:  Solving for Ux, Initial residual = 0.864492, Final residual = 1.24173e-07, No Iterations 3
DICPCG:  Solving for Uy, Initial residual = 0, Final residual = 0, No Iterations 0
smoothSolver:  Solving for epsilon, Initial residual = 0.00150305, Final residual = 3.54463e-07, No Iterations 7
smoothSolver:  Solving for k, Initial residual = 0.00455982, Final residual = 6.1514e-07, No Iterations 8
Uncorrected Ubar = 20.5094, pressure gradient = -142049
Rey = 0.148615, uTau = 6.16809, nut+ = 0, nuEff+ = 1, y+ = 0.385506, u+ = 0.385506, k+ = 1.17132e-13, epsilon+ = 1.58965e-12, omega+ = 150.794
ExecutionTime = 0.035149 s  ClockTime = 0 s

Time = 25s

DICPCG:  Solving for Ux, Initial residual = 0.801798, Final residual = 1.17288e-07, No Iterations 3
DICPCG:  Solving for Uy, Initial residual = 0, Final residual = 0, No Iterations 0
smoothSolver:  Solving for epsilon, Initial residual = 0.00225845, Final residual = 3.51038e-07, No Iterations 7
smoothSolver:  Solving for k, Initial residual = 0.00454832, Final residual = 6.05837e-07, No Iterations 8
Uncorrected Ubar = -0.261943, pressure gradient = 139327
Rey = 0.268093, uTau = 8.28443, nut+ = 0, nuEff+ = 1, y+ = 0.517777, u+ = 0.517777, k+ = 6.3788e-14, epsilon+ = 4.8439e-13, omega+ = 84.3749
ExecutionTime = 0.036055 s  ClockTime = 0 s

Time = 26s

DICPCG:  Solving for Ux, Initial residual = 0.851419, Final residual = 1.22365e-07, No Iterations 3
DICPCG:  Solving for Uy, Initial residual = 0, Final residual = 0, No Iterations 0
smoothSolver:  Solving for epsilon, Initial residual = 0.00127232, Final residual = 9.87201e-07, No Iterations 6
smoothSolver:  Solving for k, Initial residual = 0.00434681, Final residual = 5.90758e-07, No Iterations 8
Uncorrected Ubar = 20.0211, pressure gradient = -135444
Rey = 0.141015, uTau = 6.00832, nut+ = 0, nuEff+ = 1, y+ = 0.37552, u+ = 0.37552, k+ = 1.20368e-13, epsilon+ = 1.71998e-12, omega+ = 158.77
ExecutionTime = 0.036945 s  ClockTime = 0 s

Time = 27s

DICPCG:  Solving for Ux, Initial residual = 0.791805, Final residual = 1.15767e-07, No Iterations 3
DICPCG:  Solving for Uy, Initial residual = 0, Final residual = 0, No Iterations 0
smoothSolver:  Solving for epsilon, Initial residual = 0.00199349, Final residual = 9.92783e-07, No Iterations 6
smoothSolver:  Solving for k, Initial residual = 0.00434023, Final residual = 5.8251e-07, No Iterations 8
Uncorrected Ubar = 0.214919, pressure gradient = 132857
Rey = 0.256411, uTau = 8.10193, nut+ = 0, nuEff+ = 1, y+ = 0.50637, u+ = 0.50637, k+ = 6.5133e-14, epsilon+ = 5.16338e-13, omega+ = 88.0827
ExecutionTime = 0.037873 s  ClockTime = 0 s

Time = 28s

DICPCG:  Solving for Ux, Initial residual = 0.838254, Final residual = 1.20531e-07, No Iterations 3
DICPCG:  Solving for Uy, Initial residual = 0, Final residual = 0, No Iterations 0
smoothSolver:  Solving for epsilon, Initial residual = 0.00108383, Final residual = 8.52964e-07, No Iterations 6
smoothSolver:  Solving for k, Initial residual = 0.00415902, Final residual = 5.68842e-07, No Iterations 8
Uncorrected Ubar = 19.5554, pressure gradient = -129145
Rey = 0.133612, uTau = 5.84848, nut+ = 0, nuEff+ = 1, y+ = 0.36553, u+ = 0.36553, k+ = 1.24166e-13, epsilon+ = 1.871e-12, omega+ = 167.428
ExecutionTime = 0.038757 s  ClockTime = 0 s

Time = 29s

DICPCG:  Solving for Ux, Initial residual = 0.781681, Final residual = 1.14238e-07, No Iterations 3
DICPCG:  Solving for Uy, Initial residual = 0, Final residual = 0, No Iterations 0
smoothSolver:  Solving for epsilon, Initial residual = 0.00176532, Final residual = 8.6337e-07, No Iterations 6
smoothSolver:  Solving for k, Initial residual = 0.00415584, Final residual = 5.61461e-07, No Iterations 8
Uncorrected Ubar = 0.669625, pressure gradient = 126688
Rey = 0.24541, uTau = 7.92622, nut+ = 0, nuEff+ = 1, y+ = 0.495389, u+ = 0.495389, k+ = 6.66064e-14, epsilon+ = 5.50929e-13, omega+ = 91.9047
ExecutionTime = 0.039649 s  ClockTime = 0 s

Time = 30s

DICPCG:  Solving for Ux, Initial residual = 0.824983, Final residual = 1.18671e-07, No Iterations 3
DICPCG:  Solving for Uy, Initial residual = 0, Final residual = 0, No Iterations 0
smoothSolver:  Solving for epsilon, Initial residual = 0.000927187, Final residual = 7.37627e-07, No Iterations 6
smoothSolver:  Solving for k, Initial residual = 0.00399159, Final residual = 5.48971e-07, No Iterations 8
Uncorrected Ubar = 19.1113, pressure gradient = -123138
Rey = 0.126432, uTau = 5.68916, nut+ = 0, nuEff+ = 1, y+ = 0.355572, u+ = 0.355572, k+ = 1.28522e-13, epsilon+ = 2.04516e-12, omega+ = 176.81
ExecutionTime = 0.040537 s  ClockTime = 0 s

Time = 31s

DICPCG:  Solving for Ux, Initial residual = 0.771424, Final residual = 1.12698e-07, No Iterations 3
DICPCG:  Solving for Uy, Initial residual = 0, Final residual = 0, No Iterations 0
smoothSolver:  Solving for epsilon, Initial residual = 0.00157271, Final residual = 7.54104e-07, No Iterations 6
smoothSolver:  Solving for k, Initial residual = 0.00398988, Final residual = 5.42187e-07, No Iterations 8
Uncorrected Ubar = 1.1032, pressure gradient = 120806
Rey = 0.235028, uTau = 7.75675, nut+ = 0, nuEff+ = 1, y+ = 0.484797, u+ = 0.484797, k+ = 6.8203e-14, epsilon+ = 5.88332e-13, omega+ = 95.8466
ExecutionTime = 0.041423 s  ClockTime = 0 s

Time = 32s

DICPCG:  Solving for Ux, Initial residual = 0.811321, Final residual = 1.16746e-07, No Iterations 3
DICPCG:  Solving for Uy, Initial residual = 0, Final residual = 0, No Iterations 0
smoothSolver:  Solving for epsilon, Initial residual = 0.000800068, Final residual = 6.37883e-07, No Iterations 6
smoothSolver:  Solving for k, Initial residual = 0.00383933, Final residual = 5.30601e-07, No Iterations 8
Uncorrected Ubar = 18.6879, pressure gradient = -117410
Rey = 0.119488, uTau = 5.53073, nut+ = 0, nuEff+ = 1, y+ = 0.345671, u+ = 0.345671, k+ = 1.33442e-13, epsilon+ = 2.24544e-12, omega+ = 186.967
ExecutionTime = 0.042304 s  ClockTime = 0 s

Time = 33s

DICPCG:  Solving for Ux, Initial residual = 0.761024, Final residual = 1.11143e-07, No Iterations 3
DICPCG:  Solving for Uy, Initial residual = 0, Final residual = 0, No Iterations 0
smoothSolver:  Solving for epsilon, Initial residual = 0.0014032, Final residual = 6.56613e-07, No Iterations 6
smoothSolver:  Solving for k, Initial residual = 0.00383851, Final residual = 5.24325e-07, No Iterations 8
Uncorrected Ubar = 1.51663, pressure gradient = 115198
Rey = 0.225215, uTau = 7.59309, nut+ = 0, nuEff+ = 1, y+ = 0.474568, u+ = 0.474568, k+ = 6.99181e-14, epsilon+ = 6.28717e-13, omega+ = 99.9133
ExecutionTime = 0.043349 s  ClockTime = 0 s

Time = 34s

DICPCG:  Solving for Ux, Initial residual = 0.797511, Final residual = 1.14794e-07, No Iterations 3
DICPCG:  Solving for Uy, Initial residual = 0, Final residual = 0, No Iterations 0
smoothSolver:  Solving for epsilon, Initial residual = 0.00069293, Final residual = 5.49839e-07, No Iterations 6
smoothSolver:  Solving for k, Initial residual = 0.00370022, Final residual = 5.1358e-07, No Iterations 8
Uncorrected Ubar = 18.2842, pressure gradient = -111948
Rey = 0.112791, uTau = 5.3735, nut+ = 0, nuEff+ = 1, y+ = 0.335844, u+ = 0.335844, k+ = 1.38946e-13, epsilon+ = 2.47553e-12, omega+ = 197.961
ExecutionTime = 0.04439 s  ClockTime = 0 s

Time = 35s

DICPCG:  Solving for Ux, Initial residual = 0.750374, Final residual = 1.09558e-07, No Iterations 3
DICPCG:  Solving for Uy, Initial residual = 0, Final residual = 0, No Iterations 0
smoothSolver:  Solving for epsilon, Initial residual = 0.00125723, Final residual = 5.71865e-07, No Iterations 6
smoothSolver:  Solving for k, Initial residual = 0.0037007, Final residual = 5.07847e-07, No Iterations 8
Uncorrected Ubar = 1.91085, pressure gradient = 109851
Rey = 0.215926, uTau = 7.43486, nut+ = 0, nuEff+ = 1, y+ = 0.464679, u+ = 0.464679, k+ = 7.17477e-14, epsilon+ = 6.72262e-13, omega+ = 104.109
ExecutionTime = 0.04551 s  ClockTime = 0 s

Time = 36s

DICPCG:  Solving for Ux, Initial residual = 0.783572, Final residual = 1.12817e-07, No Iterations 3
DICPCG:  Solving for Uy, Initial residual = 0, Final residual = 0, No Iterations 0
smoothSolver:  Solving for epsilon, Initial residual = 0.000600058, Final residual = 4.73845e-07, No Iterations 6
smoothSolver:  Solving for k, Initial residual = 0.0035736, Final residual = 4.97913e-07, No Iterations 8
Uncorrected Ubar = 17.8992, pressure gradient = -106740
Rey = 0.106343, uTau = 5.21765, nut+ = 0, nuEff+ = 1, y+ = 0.326103, u+ = 0.326103, k+ = 1.45058e-13, epsilon+ = 2.73983e-12, omega+ = 209.864
ExecutionTime = 0.046993 s  ClockTime = 0 s

Time = 37s

DICPCG:  Solving for Ux, Initial residual = 0.739365, Final residual = 1.07925e-07, No Iterations 3
DICPCG:  Solving for Uy, Initial residual = 0, Final residual = 0, No Iterations 0
smoothSolver:  Solving for epsilon, Initial residual = 0.00112699, Final residual = 4.96655e-07, No Iterations 6
smoothSolver:  Solving for k, Initial residual = 0.00357496, Final residual = 4.92644e-07, No Iterations 8
Uncorrected Ubar = 2.28675, pressure gradient = 104753
Rey = 0.207125, uTau = 7.28175, nut+ = 0, nuEff+ = 1, y+ = 0.455109, u+ = 0.455109, k+ = 7.36884e-14, epsilon+ = 7.1915e-13, omega+ = 108.437
ExecutionTime = 0.048074 s  ClockTime = 0 s

Time = 38s

DICPCG:  Solving for Ux, Initial residual = 0.769506, Final residual = 1.10817e-07, No Iterations 3
DICPCG:  Solving for Uy, Initial residual = 0, Final residual = 0, No Iterations 0
smoothSolver:  Solving for epsilon, Initial residual = 0.00051906, Final residual = 4.0584e-07, No Iterations 6
smoothSolver:  Solving for k, Initial residual = 0.00345766, Final residual = 4.83424e-07, No Iterations 8
Uncorrected Ubar = 17.5321, pressure gradient = -101773
Rey = 0.100145, uTau = 5.06332, nut+ = 0, nuEff+ = 1, y+ = 0.316458, u+ = 0.316458, k+ = 1.51817e-13, epsilon+ = 3.04368e-12, omega+ = 222.76
ExecutionTime = 0.049018 s  ClockTime = 0 s

Time = 39s

DICPCG:  Solving for Ux, Initial residual = 0.728191, Final residual = 1.06272e-07, No Iterations 3
DICPCG:  Solving for Uy, Initial residual = 0, Final residual = 0, No Iterations 0
smoothSolver:  Solving for epsilon, Initial residual = 0.00101303, Final residual = 4.29375e-07, No Iterations 6
smoothSolver:  Solving for k, Initial residual = 0.00345961, Final residual = 4.78554e-07, No Iterations 8
Uncorrected Ubar = 2.64519, pressure gradient = 99891.4
Rey = 0.198777, uTau = 7.1335, nut+ = 0, nuEff+ = 1, y+ = 0.445844, u+ = 0.445844, k+ = 7.57372e-14, epsilon+ = 7.69573e-13, omega+ = 112.901
ExecutionTime = 0.050181 s  ClockTime = 0 s

Time = 40s

DICPCG:  Solving for Ux, Initial residual = 0.755316, Final residual = 1.08795e-07, No Iterations 3
DICPCG:  Solving for Uy, Initial residual = 0, Final residual = 0, No Iterations 0
smoothSolver:  Solving for epsilon, Initial residual = 0.000448768, Final residual = 3.45724e-07, No Iterations 6
smoothSolver:  Solving for k, Initial residual = 0.00335093, Final residual = 4.69964e-07, No Iterations 8
Uncorrected Ubar = 17.1821, pressure gradient = -97036.6
Rey = 0.0941952, uTau = 4.9106, nut+ = 0, nuEff+ = 1, y+ = 0.306912, u+ = 0.306912, k+ = 1.59267e-13, epsilon+ = 3.39349e-12, omega+ = 236.745
ExecutionTime = 0.051104 s  ClockTime = 0 s

Time = 41s

DICPCG:  Solving for Ux, Initial residual = 0.716855, Final residual = 1.04598e-07, No Iterations 3
DICPCG:  Solving for Uy, Initial residual = 0, Final residual = 0, No Iterations 0
smoothSolver:  Solving for epsilon, Initial residual = 0.000910892, Final residual = 3.70338e-07, No Iterations 6
smoothSolver:  Solving for k, Initial residual = 0.00335305, Final residual = 4.65414e-07, No Iterations 8
Uncorrected Ubar = 2.98697, pressure gradient = 95256.3
Rey = 0.190853, uTau = 6.98988, nut+ = 0, nuEff+ = 1, y+ = 0.436867, u+ = 0.436867, k+ = 7.78915e-14, epsilon+ = 8.2373e-13, omega+ = 117.504
ExecutionTime = 0.051995 s  ClockTime = 0 s

Time = 42s

DICPCG:  Solving for Ux, Initial residual = 0.739579, Final residual = 1.06547e-07, No Iterations 3
DICPCG:  Solving for Uy, Initial residual = 0, Final residual = 0, No Iterations 0
smoothSolver:  Solving for epsilon, Initial residual = 0.000386218, Final residual = 9.40331e-07, No Iterations 5
smoothSolver:  Solving for k, Initial residual = 0.00325163, Final residual = 4.57329e-07, No Iterations 8
Uncorrected Ubar = 16.8483, pressure gradient = -92520.4
Rey = 0.0884887, uTau = 4.75953, nut+ = 0, nuEff+ = 1, y+ = 0.29747, u+ = 0.29747, k+ = 1.67463e-13, epsilon+ = 3.79703e-12, omega+ = 251.931
ExecutionTime = 0.052917 s  ClockTime = 0 s

Time = 43s

DICPCG:  Solving for Ux, Initial residual = 0.705359, Final residual = 1.02904e-07, No Iterations 3
DICPCG:  Solving for Uy, Initial residual = 0, Final residual = 0, No Iterations 0
smoothSolver:  Solving for epsilon, Initial residual = 0.000819739, Final residual = 3.17539e-07, No Iterations 6
smoothSolver:  Solving for k, Initial residual = 0.0032537, Final residual = 4.53048e-07, No Iterations 8
Uncorrected Ubar = 3.31286, pressure gradient = 90836.6
Rey = 0.183327, uTau = 6.85068, nut+ = 0, nuEff+ = 1, y+ = 0.428167, u+ = 0.428167, k+ = 8.01493e-14, epsilon+ = 8.81826e-13, omega+ = 122.248
ExecutionTime = 0.05391 s  ClockTime = 0 s

Time = 44s

DICPCG:  Solving for Ux, Initial residual = 0.723401, Final residual = 1.04233e-07, No Iterations 3
DICPCG:  Solving for Uy, Initial residual = 0, Final residual = 0, No Iterations 0
smoothSolver:  Solving for epsilon, Initial residual = 0.000331657, Final residual = 7.8954e-07, No Iterations 5
smoothSolver:  Solving for k, Initial residual = 0.00315879, Final residual = 4.4542e-07, No Iterations 8
Uncorrected Ubar = 16.5301, pressure gradient = -88214
Rey = 0.0830207, uTau = 4.61013, nut+ = 0, nuEff+ = 1, y+ = 0.288133, u+ = 0.288133, k+ = 1.76474e-13, epsilon+ = 4.26368e-12, omega+ = 268.448
ExecutionTime = 0.054887 s  ClockTime = 0 s

Time = 45s

DICPCG:  Solving for Ux, Initial residual = 0.693706, Final residual = 1.0119e-07, No Iterations 3
DICPCG:  Solving for Uy, Initial residual = 0, Final residual = 0, No Iterations 0
smoothSolver:  Solving for epsilon, Initial residual = 0.000738451, Final residual = 8.9287e-07, No Iterations 5
smoothSolver:  Solving for k, Initial residual = 0.00316068, Final residual = 4.41371e-07, No Iterations 8
Uncorrected Ubar = 3.62361, pressure gradient = 86622.5
Rey = 0.176175, uTau = 6.71572, nut+ = 0, nuEff+ = 1, y+ = 0.419733, u+ = 0.419733, k+ = 8.25085e-14, epsilon+ = 9.44076e-13, omega+ = 127.135
ExecutionTime = 0.055777 s  ClockTime = 0 s

Time = 46s

DICPCG:  Solving for Ux, Initial residual = 0.707148, Final residual = 1.01905e-07, No Iterations 3
DICPCG:  Solving for Uy, Initial residual = 0, Final residual = 0, No Iterations 0
smoothSolver:  Solving for epsilon, Initial residual = 0.000283311, Final residual = 6.5506e-07, No Iterations 5
smoothSolver:  Solving for k, Initial residual = 0.00307204, Final residual = 4.34212e-07, No Iterations 8
Uncorrected Ubar = 16.2266, pressure gradient = -84107.5
Rey = 0.077785, uTau = 4.46239, nut+ = 0, nuEff+ = 1, y+ = 0.2789, u+ = 0.2789, k+ = 1.86379e-13, epsilon+ = 4.80488e-12, omega+ = 286.446
ExecutionTime = 0.05663 s  ClockTime = 0 s

Time = 47s

DICPCG:  Solving for Ux, Initial residual = 0.681803, Final residual = 9.94411e-08, No Iterations 3
DICPCG:  Solving for Uy, Initial residual = 0, Final residual = 0, No Iterations 0
smoothSolver:  Solving for epsilon, Initial residual = 0.000665267, Final residual = 7.56722e-07, No Iterations 5
smoothSolver:  Solving for k, Initial residual = 0.00307399, Final residual = 4.3041e-07, No Iterations 8
Uncorrected Ubar = 3.91992, pressure gradient = 82604.2
Rey = 0.169375, uTau = 6.58484, nut+ = 0, nuEff+ = 1, y+ = 0.411552, u+ = 0.411552, k+ = 8.49676e-14, epsilon+ = 1.0107e-12, omega+ = 132.168
ExecutionTime = 0.057506 s  ClockTime = 0 s

Time = 48s

DICPCG:  Solving for Ux, Initial residual = 0.689492, Final residual = 9.93721e-08, No Iterations 3
DICPCG:  Solving for Uy, Initial residual = 0, Final residual = 0, No Iterations 0
smoothSolver:  Solving for epsilon, Initial residual = 0.000240134, Final residual = 5.36013e-07, No Iterations 5
smoothSolver:  Solving for k, Initial residual = 0.00299096, Final residual = 4.23672e-07, No Iterations 8
Uncorrected Ubar = 15.9373, pressure gradient = -80191.8
Rey = 0.072775, uTau = 4.31629, nut+ = 0, nuEff+ = 1, y+ = 0.269768, u+ = 0.269768, k+ = 1.97273e-13, epsilon+ = 5.43463e-12, omega+ = 306.098
ExecutionTime = 0.058388 s  ClockTime = 0 s

Time = 49s

DICPCG:  Solving for Ux, Initial residual = 0.669601, Final residual = 9.76507e-08, No Iterations 3
DICPCG:  Solving for Uy, Initial residual = 0, Final residual = 0, No Iterations 0
smoothSolver:  Solving for epsilon, Initial residual = 0.000599441, Final residual = 6.36788e-07, No Iterations 5
smoothSolver:  Solving for k, Initial residual = 0.00299288, Final residual = 4.2009e-07, No Iterations 8
Uncorrected Ubar = 4.20247, pressure gradient = 78772.8
Rey = 0.162907, uTau = 6.45789, nut+ = 0, nuEff+ = 1, y+ = 0.403618, u+ = 0.403618, k+ = 8.7525e-14, epsilon+ = 1.08193e-12, omega+ = 137.348
ExecutionTime = 0.059268 s  ClockTime = 0 s

Time = 50s

DICPCG:  Solving for Ux, Initial residual = 0.6719, Final residual = 9.68467e-08, No Iterations 3
DICPCG:  Solving for Uy, Initial residual = 0, Final residual = 0, No Iterations 0
smoothSolver:  Solving for epsilon, Initial residual = 0.000207048, Final residual = 4.31488e-07, No Iterations 5
smoothSolver:  Solving for k, Initial residual = 0.00291496, Final residual = 4.13731e-07, No Iterations 8
Uncorrected Ubar = 15.6614, pressure gradient = -76458.1
Rey = 0.0679835, uTau = 4.17178, nut+ = 0, nuEff+ = 1, y+ = 0.260736, u+ = 0.260736, k+ = 2.09267e-13, epsilon+ = 6.17016e-12, omega+ = 327.608
ExecutionTime = 0.060217 s  ClockTime = 0 s

Time = 51s

DICPCG:  Solving for Ux, Initial residual = 0.657258, Final residual = 9.58416e-08, No Iterations 3
DICPCG:  Solving for Uy, Initial residual = 0, Final residual = 0, No Iterations 0
smoothSolver:  Solving for epsilon, Initial residual = 0.000552085, Final residual = 5.29156e-07, No Iterations 5
smoothSolver:  Solving for k, Initial residual = 0.00291674, Final residual = 4.10343e-07, No Iterations 8
Uncorrected Ubar = 4.47188, pressure gradient = 75119.5
Rey = 0.156753, uTau = 6.33472, nut+ = 0, nuEff+ = 1, y+ = 0.39592, u+ = 0.39592, k+ = 9.01795e-14, epsilon+ = 1.15799e-12, omega+ = 142.677
ExecutionTime = 0.061131 s  ClockTime = 0 s

Time = 52s

DICPCG:  Solving for Ux, Initial residual = 0.654387, Final residual = 9.4331e-08, No Iterations 3
DICPCG:  Solving for Uy, Initial residual = 0, Final residual = 0, No Iterations 0
smoothSolver:  Solving for epsilon, Initial residual = 0.000190007, Final residual = 3.41802e-07, No Iterations 5
smoothSolver:  Solving for k, Initial residual = 0.00284365, Final residual = 4.0433e-07, No Iterations 8
Uncorrected Ubar = 15.3983, pressure gradient = -72897.7
Rey = 0.0634031, uTau = 4.0288, nut+ = 0, nuEff+ = 1, y+ = 0.2518, u+ = 0.2518, k+ = 2.22494e-13, epsilon+ = 7.03285e-12, omega+ = 351.213
ExecutionTime = 0.062017 s  ClockTime = 0 s

Time = 53s

DICPCG:  Solving for Ux, Initial residual = 0.644785, Final residual = 9.40151e-08, No Iterations 3
DICPCG:  Solving for Uy, Initial residual = 0, Final residual = 0, No Iterations 0
smoothSolver:  Solving for epsilon, Initial residual = 0.000518026, Final residual = 4.57725e-07, No Iterations 5
smoothSolver:  Solving for k, Initial residual = 0.00284506, Final residual = 4.01115e-07, No Iterations 8
Uncorrected Ubar = 4.72877, pressure gradient = 71636
Rey = 0.150894, uTau = 6.21522, nut+ = 0, nuEff+ = 1, y+ = 0.388451, u+ = 0.388451, k+ = 9.29297e-14, epsilon+ = 1.23912e-12, omega+ = 148.155
ExecutionTime = 0.064361 s  ClockTime = 0 s

Time = 54s

DICPCG:  Solving for Ux, Initial residual = 0.636439, Final residual = 9.17509e-08, No Iterations 3
DICPCG:  Solving for Uy, Initial residual = 0, Final residual = 0, No Iterations 0
smoothSolver:  Solving for epsilon, Initial residual = 0.000180235, Final residual = 3.12542e-07, No Iterations 5
smoothSolver:  Solving for k, Initial residual = 0.00277632, Final residual = 3.95415e-07, No Iterations 8
Uncorrected Ubar = 15.1474, pressure gradient = -69502.8
Rey = 0.0590265, uTau = 3.88726, nut+ = 0, nuEff+ = 1, y+ = 0.242954, u+ = 0.242954, k+ = 2.37113e-13, epsilon+ = 8.04941e-12, omega+ = 377.196
ExecutionTime = 0.065493 s  ClockTime = 0 s

Time = 55s

DICPCG:  Solving for Ux, Initial residual = 0.632192, Final residual = 9.21724e-08, No Iterations 3
DICPCG:  Solving for Uy, Initial residual = 0, Final residual = 0, No Iterations 0
smoothSolver:  Solving for epsilon, Initial residual = 0.0004906, Final residual = 4.39586e-07, No Iterations 5
smoothSolver:  Solving for k, Initial residual = 0.00277737, Final residual = 3.92355e-07, No Iterations 8
Uncorrected Ubar = 4.97373, pressure gradient = 68314.4
Rey = 0.145316, uTau = 6.09926, nut+ = 0, nuEff+ = 1, y+ = 0.381204, u+ = 0.381204, k+ = 9.57746e-14, epsilon+ = 1.32557e-12, omega+ = 153.784
ExecutionTime = 0.066488 s  ClockTime = 0 s

Time = 56s

DICPCG:  Solving for Ux, Initial residual = 0.617973, Final residual = 8.90948e-08, No Iterations 3
DICPCG:  Solving for Uy, Initial residual = 0, Final residual = 0, No Iterations 0
smoothSolver:  Solving for epsilon, Initial residual = 0.000175437, Final residual = 3.18093e-07, No Iterations 5
smoothSolver:  Solving for k, Initial residual = 0.00271258, Final residual = 3.86941e-07, No Iterations 8
Uncorrected Ubar = 14.9082, pressure gradient = -66265.6
Rey = 0.054846, uTau = 3.74708, nut+ = 0, nuEff+ = 1, y+ = 0.234192, u+ = 0.234192, k+ = 2.53311e-13, epsilon+ = 9.25348e-12, omega+ = 405.89
ExecutionTime = 0.067343 s  ClockTime = 0 s

Time = 57s

DICPCG:  Solving for Ux, Initial residual = 0.61949, Final residual = 9.03151e-08, No Iterations 3
DICPCG:  Solving for Uy, Initial residual = 0, Final residual = 0, No Iterations 0
smoothSolver:  Solving for epsilon, Initial residual = 0.000468941, Final residual = 4.48233e-07, No Iterations 5
smoothSolver:  Solving for k, Initial residual = 0.0027133, Final residual = 3.84021e-07, No Iterations 8
Uncorrected Ubar = 5.2073, pressure gradient = 65147.2
Rey = 0.140004, uTau = 5.98673, nut+ = 0, nuEff+ = 1, y+ = 0.374171, u+ = 0.374171, k+ = 9.8713e-14, epsilon+ = 1.41759e-12, omega+ = 159.563
ExecutionTime = 0.068181 s  ClockTime = 0 s

Time = 58s

DICPCG:  Solving for Ux, Initial residual = 0.599693, Final residual = 8.64642e-08, No Iterations 3
DICPCG:  Solving for Uy, Initial residual = 0, Final residual = 0, No Iterations 0
smoothSolver:  Solving for epsilon, Initial residual = 0.000174362, Final residual = 3.42112e-07, No Iterations 5
smoothSolver:  Solving for k, Initial residual = 0.0026521, Final residual = 3.78869e-07, No Iterations 8
Uncorrected Ubar = 14.6801, pressure gradient = -63178.8
Rey = 0.0508543, uTau = 3.60814, nut+ = 0, nuEff+ = 1, y+ = 0.225509, u+ = 0.225509, k+ = 2.71316e-13, epsilon+ = 1.06878e-11, omega+ = 437.694
ExecutionTime = 0.069017 s  ClockTime = 0 s

Time = 59s

DICPCG:  Solving for Ux, Initial residual = 0.606693, Final residual = 8.84448e-08, No Iterations 3
DICPCG:  Solving for Uy, Initial residual = 0, Final residual = 0, No Iterations 0
smoothSolver:  Solving for epsilon, Initial residual = 0.000453039, Final residual = 4.65904e-07, No Iterations 5
smoothSolver:  Solving for k, Initial residual = 0.00265249, Final residual = 3.76074e-07, No Iterations 8
Uncorrected Ubar = 5.43002, pressure gradient = 62127.2
Rey = 0.134943, uTau = 5.87754, nut+ = 0, nuEff+ = 1, y+ = 0.367346, u+ = 0.367346, k+ = 1.01744e-13, epsilon+ = 1.51542e-12, omega+ = 165.494
ExecutionTime = 0.069912 s  ClockTime = 0 s

Time = 60s

DICPCG:  Solving for Ux, Initial residual = 0.581484, Final residual = 8.38428e-08, No Iterations 3
DICPCG:  Solving for Uy, Initial residual = 0, Final residual = 0, No Iterations 0
smoothSolver:  Solving for epsilon, Initial residual = 0.000178023, Final residual = 3.67766e-07, No Iterations 5
smoothSolver:  Solving for k, Initial residual = 0.00259456, Final residual = 3.71163e-07, No Iterations 8
Uncorrected Ubar = 14.4626, pressure gradient = -60235.5
Rey = 0.0470439, uTau = 3.47034, nut+ = 0, nuEff+ = 1, y+ = 0.216896, u+ = 0.216896, k+ = 2.91402e-13, epsilon+ = 1.24074e-11, omega+ = 473.093
ExecutionTime = 0.070769 s  ClockTime = 0 s

Time = 61s

DICPCG:  Solving for Ux, Initial residual = 0.593812, Final residual = 8.65634e-08, No Iterations 3
DICPCG:  Solving for Uy, Initial residual = 0, Final residual = 0, No Iterations 0
smoothSolver:  Solving for epsilon, Initial residual = 0.000441309, Final residual = 4.85166e-07, No Iterations 5
smoothSolver:  Solving for k, Initial residual = 0.00259464, Final residual = 3.68481e-07, No Iterations 8
Uncorrected Ubar = 5.64239, pressure gradient = 59247.5
Rey = 0.130121, uTau = 5.77157, nut+ = 0, nuEff+ = 1, y+ = 0.360723, u+ = 0.360723, k+ = 1.04865e-13, epsilon+ = 1.61931e-12, omega+ = 171.576
ExecutionTime = 0.071623 s  ClockTime = 0 s

Time = 62s

DICPCG:  Solving for Ux, Initial residual = 0.562851, Final residual = 8.11594e-08, No Iterations 3
DICPCG:  Solving for Uy, Initial residual = 0, Final residual = 0, No Iterations 0
smoothSolver:  Solving for epsilon, Initial residual = 0.000182429, Final residual = 3.9276e-07, No Iterations 5
smoothSolver:  Solving for k, Initial residual = 0.0025397, Final residual = 3.6379e-07, No Iterations 8
Uncorrected Ubar = 14.2553, pressure gradient = -57428.9
Rey = 0.0434077, uTau = 3.33352, nut+ = 0, nuEff+ = 1, y+ = 0.208345, u+ = 0.208345, k+ = 3.13902e-13, epsilon+ = 1.44836e-11, omega+ = 512.672
ExecutionTime = 0.07257 s  ClockTime = 0 s

Time = 63s

DICPCG:  Solving for Ux, Initial residual = 0.580712, Final residual = 8.4651e-08, No Iterations 3
DICPCG:  Solving for Uy, Initial residual = 0, Final residual = 0, No Iterations 0
smoothSolver:  Solving for epsilon, Initial residual = 0.000430565, Final residual = 5.04075e-07, No Iterations 5
smoothSolver:  Solving for k, Initial residual = 0.00253949, Final residual = 3.61211e-07, No Iterations 8
Uncorrected Ubar = 5.84489, pressure gradient = 56501.7
Rey = 0.125525, uTau = 5.66873, nut+ = 0, nuEff+ = 1, y+ = 0.354296, u+ = 0.354296, k+ = 1.08076e-13, epsilon+ = 1.72952e-12, omega+ = 177.809
ExecutionTime = 0.073447 s  ClockTime = 0 s

Time = 64s

DICPCG:  Solving for Ux, Initial residual = 0.544224, Final residual = 7.84759e-08, No Iterations 3
DICPCG:  Solving for Uy, Initial residual = 0, Final residual = 0, No Iterations 0
smoothSolver:  Solving for epsilon, Initial residual = 0.000186695, Final residual = 4.1703e-07, No Iterations 5
smoothSolver:  Solving for k, Initial residual = 0.0024873, Final residual = 3.56724e-07, No Iterations 8
Uncorrected Ubar = 14.0575, pressure gradient = -54752.7
Rey = 0.0399384, uTau = 3.19754, nut+ = 0, nuEff+ = 1, y+ = 0.199846, u+ = 0.199846, k+ = 3.39229e-13, epsilon+ = 1.70102e-11, omega+ = 557.154
ExecutionTime = 0.074414 s  ClockTime = 0 s

Time = 65s

DICPCG:  Solving for Ux, Initial residual = 0.567507, Final residual = 8.27239e-08, No Iterations 3
DICPCG:  Solving for Uy, Initial residual = 0, Final residual = 0, No Iterations 0
smoothSolver:  Solving for epsilon, Initial residual = 0.000420694, Final residual = 5.22528e-07, No Iterations 5
smoothSolver:  Solving for k, Initial residual = 0.0024868, Final residual = 3.54237e-07, No Iterations 8
Uncorrected Ubar = 6.03797, pressure gradient = 53883.5
Rey = 0.121145, uTau = 5.56894, nut+ = 0, nuEff+ = 1, y+ = 0.348059, u+ = 0.348059, k+ = 1.11376e-13, epsilon+ = 1.84631e-12, omega+ = 184.192
ExecutionTime = 0.075318 s  ClockTime = 0 s

Time = 66s

DICPCG:  Solving for Ux, Initial residual = 0.525946, Final residual = 7.58421e-08, No Iterations 3
DICPCG:  Solving for Uy, Initial residual = 0, Final residual = 0, No Iterations 0
smoothSolver:  Solving for epsilon, Initial residual = 0.000190807, Final residual = 4.43706e-07, No Iterations 5
smoothSolver:  Solving for k, Initial residual = 0.00243713, Final residual = 3.49939e-07, No Iterations 8
Uncorrected Ubar = 13.869, pressure gradient = -52200.9
Rey = 0.0366294, uTau = 3.06221, nut+ = 0, nuEff+ = 1, y+ = 0.191388, u+ = 0.191388, k+ = 3.67896e-13, epsilon+ = 2.01126e-11, omega+ = 607.436
ExecutionTime = 0.0763 s  ClockTime = 0 s

Time = 67s

DICPCG:  Solving for Ux, Initial residual = 0.554263, Final residual = 8.07919e-08, No Iterations 3
DICPCG:  Solving for Uy, Initial residual = 0, Final residual = 0, No Iterations 0
smoothSolver:  Solving for epsilon, Initial residual = 0.000411601, Final residual = 5.40505e-07, No Iterations 5
smoothSolver:  Solving for k, Initial residual = 0.00243637, Final residual = 3.47536e-07, No Iterations 8
Uncorrected Ubar = 6.22209, pressure gradient = 51387
Rey = 0.116969, uTau = 5.47211, nut+ = 0, nuEff+ = 1, y+ = 0.342007, u+ = 0.342007, k+ = 1.14762e-13, epsilon+ = 1.9699e-12, omega+ = 190.723
ExecutionTime = 0.077216 s  ClockTime = 0 s

Time = 68s

DICPCG:  Solving for Ux, Initial residual = 0.508029, Final residual = 7.32595e-08, No Iterations 3
DICPCG:  Solving for Uy, Initial residual = 0, Final residual = 0, No Iterations 0
smoothSolver:  Solving for epsilon, Initial residual = 0.000194755, Final residual = 4.69133e-07, No Iterations 5
smoothSolver:  Solving for k, Initial residual = 0.00238903, Final residual = 3.43412e-07, No Iterations 8
Uncorrected Ubar = 13.6892, pressure gradient = -49767.6
Rey = 0.0334737, uTau = 2.92733, nut+ = 0, nuEff+ = 1, y+ = 0.182958, u+ = 0.182958, k+ = 4.00549e-13, epsilon+ = 2.39603e-11, omega+ = 664.651
ExecutionTime = 0.078093 s  ClockTime = 0 s

Time = 69s

DICPCG:  Solving for Ux, Initial residual = 0.540997, Final residual = 7.88571e-08, No Iterations 3
DICPCG:  Solving for Uy, Initial residual = 0, Final residual = 0, No Iterations 0
smoothSolver:  Solving for epsilon, Initial residual = 0.000403201, Final residual = 5.60393e-07, No Iterations 5
smoothSolver:  Solving for k, Initial residual = 0.002388, Final residual = 3.41086e-07, No Iterations 8
Uncorrected Ubar = 6.39765, pressure gradient = 49006.4
Rey = 0.112986, uTau = 5.37815, nut+ = 0, nuEff+ = 1, y+ = 0.336135, u+ = 0.336135, k+ = 1.18234e-13, epsilon+ = 2.10056e-12, omega+ = 197.402
ExecutionTime = 0.078939 s  ClockTime = 0 s

Time = 70s

DICPCG:  Solving for Ux, Initial residual = 0.489889, Final residual = 7.06444e-08, No Iterations 3
DICPCG:  Solving for Uy, Initial residual = 0, Final residual = 0, No Iterations 0
smoothSolver:  Solving for epsilon, Initial residual = 0.00019853, Final residual = 4.93238e-07, No Iterations 5
smoothSolver:  Solving for k, Initial residual = 0.00234281, Final residual = 3.37124e-07, No Iterations 8
Uncorrected Ubar = 13.5177, pressure gradient = -47447.5
Rey = 0.030465, uTau = 2.79267, nut+ = 0, nuEff+ = 1, y+ = 0.174542, u+ = 0.174542, k+ = 4.38014e-13, epsilon+ = 2.87871e-11, omega+ = 730.243
ExecutionTime = 0.081264 s  ClockTime = 0 s

Time = 71s

DICPCG:  Solving for Ux, Initial residual = 0.527723, Final residual = 7.69219e-08, No Iterations 3
DICPCG:  Solving for Uy, Initial residual = 0, Final residual = 0, No Iterations 0
smoothSolver:  Solving for epsilon, Initial residual = 0.000395422, Final residual = 5.79609e-07, No Iterations 5
smoothSolver:  Solving for k, Initial residual = 0.00234154, Final residual = 3.34869e-07, No Iterations 8
Uncorrected Ubar = 6.56505, pressure gradient = 46736.5
Rey = 0.109189, uTau = 5.287, nut+ = 0, nuEff+ = 1, y+ = 0.330437, u+ = 0.330437, k+ = 1.21789e-13, epsilon+ = 2.23853e-12, omega+ = 204.226
ExecutionTime = 0.082299 s  ClockTime = 0 s

Time = 72s

DICPCG:  Solving for Ux, Initial residual = 0.472014, Final residual = 6.80668e-08, No Iterations 3
DICPCG:  Solving for Uy, Initial residual = 0, Final residual = 0, No Iterations 0
smoothSolver:  Solving for epsilon, Initial residual = 0.00020213, Final residual = 5.1607e-07, No Iterations 5
smoothSolver:  Solving for k, Initial residual = 0.00229833, Final residual = 9.9983e-07, No Iterations 7
Uncorrected Ubar = 13.3543, pressure gradient = -45235.1
Rey = 0.0275968, uTau = 2.65797, nut+ = 0, nuEff+ = 1, y+ = 0.166123, u+ = 0.166123, k+ = 4.81366e-13, epsilon+ = 3.4922e-11, omega+ = 806.086
ExecutionTime = 0.083284 s  ClockTime = 0 s

Time = 73s

DICPCG:  Solving for Ux, Initial residual = 0.514459, Final residual = 7.49886e-08, No Iterations 3
DICPCG:  Solving for Uy, Initial residual = 0, Final residual = 0, No Iterations 0
smoothSolver:  Solving for epsilon, Initial residual = 0.000388194, Final residual = 5.97823e-07, No Iterations 5
smoothSolver:  Solving for k, Initial residual = 0.00229682, Final residual = 9.93399e-07, No Iterations 7
Uncorrected Ubar = 6.72468, pressure gradient = 44572.1
Rey = 0.105567, uTau = 5.19856, nut+ = 0, nuEff+ = 1, y+ = 0.32491, u+ = 0.32491, k+ = 1.25427e-13, epsilon+ = 2.38403e-12, omega+ = 211.193
ExecutionTime = 0.084242 s  ClockTime = 0 s

Time = 74s

DICPCG:  Solving for Ux, Initial residual = 0.454591, Final residual = 6.55542e-08, No Iterations 3
DICPCG:  Solving for Uy, Initial residual = 0, Final residual = 0, No Iterations 0
smoothSolver:  Solving for epsilon, Initial residual = 0.000205545, Final residual = 5.3768e-07, No Iterations 5
smoothSolver:  Solving for k, Initial residual = 0.00225546, Final residual = 9.82009e-07, No Iterations 7
Uncorrected Ubar = 13.1984, pressure gradient = -43125.6
Rey = 0.0248633, uTau = 2.5229, nut+ = 0, nuEff+ = 1, y+ = 0.157681, u+ = 0.157681, k+ = 5.32021e-13, epsilon+ = 4.2838e-11, omega+ = 894.659
ExecutionTime = 0.085512 s  ClockTime = 0 s

Time = 75s

DICPCG:  Solving for Ux, Initial residual = 0.50122, Final residual = 7.30593e-08, No Iterations 3
DICPCG:  Solving for Uy, Initial residual = 0, Final residual = 0, No Iterations 0
smoothSolver:  Solving for epsilon, Initial residual = 0.000381462, Final residual = 6.15062e-07, No Iterations 5
smoothSolver:  Solving for k, Initial residual = 0.00225372, Final residual = 9.75749e-07, No Iterations 7
Uncorrected Ubar = 6.87688, pressure gradient = 42508.2
Rey = 0.102111, uTau = 5.11278, nut+ = 0, nuEff+ = 1, y+ = 0.319548, u+ = 0.319548, k+ = 1.29143e-13, epsilon+ = 2.53729e-12, omega+ = 218.301
ExecutionTime = 0.086521 s  ClockTime = 0 s

Time = 76s

DICPCG:  Solving for Ux, Initial residual = 0.437625, Final residual = 6.31071e-08, No Iterations 3
DICPCG:  Solving for Uy, Initial residual = 0, Final residual = 0, No Iterations 0
smoothSolver:  Solving for epsilon, Initial residual = 0.000208779, Final residual = 5.58089e-07, No Iterations 5
smoothSolver:  Solving for k, Initial residual = 0.00221407, Final residual = 9.64769e-07, No Iterations 7
Uncorrected Ubar = 13.0498, pressure gradient = -41114.1
Rey = 0.0222584, uTau = 2.38708, nut+ = 0, nuEff+ = 1, y+ = 0.149193, u+ = 0.149193, k+ = 5.91896e-13, epsilon+ = 5.32337e-11, omega+ = 999.307
ExecutionTime = 0.087436 s  ClockTime = 0 s

Time = 77s

DICPCG:  Solving for Ux, Initial residual = 0.488022, Final residual = 7.11365e-08, No Iterations 3
DICPCG:  Solving for Uy, Initial residual = 0, Final residual = 0, No Iterations 0
smoothSolver:  Solving for epsilon, Initial residual = 0.000375158, Final residual = 6.31324e-07, No Iterations 5
smoothSolver:  Solving for k, Initial residual = 0.00221212, Final residual = 9.58666e-07, No Iterations 7
Uncorrected Ubar = 7.02202, pressure gradient = 40540.3
Rey = 0.0988146, uTau = 5.02957, nut+ = 0, nuEff+ = 1, y+ = 0.314348, u+ = 0.314348, k+ = 1.32938e-13, epsilon+ = 2.69853e-12, omega+ = 225.547
ExecutionTime = 0.088315 s  ClockTime = 0 s

Time = 78s

DICPCG:  Solving for Ux, Initial residual = 0.42073, Final residual = 6.06699e-08, No Iterations 3
DICPCG:  Solving for Uy, Initial residual = 0, Final residual = 0, No Iterations 0
smoothSolver:  Solving for epsilon, Initial residual = 0.00021183, Final residual = 5.77349e-07, No Iterations 5
smoothSolver:  Solving for k, Initial residual = 0.00217407, Final residual = 9.4807e-07, No Iterations 7
Uncorrected Ubar = 12.908, pressure gradient = -39196.1
Rey = 0.0197766, uTau = 2.25007, nut+ = 0, nuEff+ = 1, y+ = 0.140629, u+ = 0.140629, k+ = 6.6364e-13, epsilon+ = 6.71733e-11, omega+ = 1124.66
ExecutionTime = 0.089157 s  ClockTime = 0 s

Time = 79s

DICPCG:  Solving for Ux, Initial residual = 0.474882, Final residual = 6.92223e-08, No Iterations 3
DICPCG:  Solving for Uy, Initial residual = 0, Final residual = 0, No Iterations 0
smoothSolver:  Solving for epsilon, Initial residual = 0.000369258, Final residual = 6.46678e-07, No Iterations 5
smoothSolver:  Solving for k, Initial residual = 0.0021719, Final residual = 9.42111e-07, No Iterations 7
Uncorrected Ubar = 7.1604, pressure gradient = 38663.7
Rey = 0.095669, uTau = 4.94886, nut+ = 0, nuEff+ = 1, y+ = 0.309304, u+ = 0.309304, k+ = 1.36808e-13, epsilon+ = 2.86795e-12, omega+ = 232.926
ExecutionTime = 0.090079 s  ClockTime = 0 s

Time = 80s

DICPCG:  Solving for Ux, Initial residual = 0.404064, Final residual = 5.82654e-08, No Iterations 3
DICPCG:  Solving for Uy, Initial residual = 0, Final residual = 0, No Iterations 0
smoothSolver:  Solving for epsilon, Initial residual = 0.000214707, Final residual = 5.95533e-07, No Iterations 5
smoothSolver:  Solving for k, Initial residual = 0.00213535, Final residual = 9.31873e-07, No Iterations 7
Uncorrected Ubar = 12.7729, pressure gradient = -37367.3
Rey = 0.0174124, uTau = 2.1113, nut+ = 0, nuEff+ = 1, y+ = 0.131956, u+ = 0.131956, k+ = 7.5103e-13, epsilon+ = 8.63366e-11, omega+ = 1277.31
ExecutionTime = 0.090959 s  ClockTime = 0 s

Time = 81s

DICPCG:  Solving for Ux, Initial residual = 0.461815, Final residual = 6.73191e-08, No Iterations 3
DICPCG:  Solving for Uy, Initial residual = 0, Final residual = 0, No Iterations 0
smoothSolver:  Solving for epsilon, Initial residual = 0.000363727, Final residual = 6.6117e-07, No Iterations 5
smoothSolver:  Solving for k, Initial residual = 0.00213299, Final residual = 9.26047e-07, No Iterations 7
Uncorrected Ubar = 7.29236, pressure gradient = 36874.4
Rey = 0.0926672, uTau = 4.8706, nut+ = 0, nuEff+ = 1, y+ = 0.304413, u+ = 0.304413, k+ = 1.40751e-13, epsilon+ = 3.04575e-12, omega+ = 240.437
ExecutionTime = 0.091873 s  ClockTime = 0 s

Time = 82s

DICPCG:  Solving for Ux, Initial residual = 0.387903, Final residual = 5.59336e-08, No Iterations 3
DICPCG:  Solving for Uy, Initial residual = 0, Final residual = 0, No Iterations 0
smoothSolver:  Solving for epsilon, Initial residual = 0.000217416, Final residual = 6.12689e-07, No Iterations 5
smoothSolver:  Solving for k, Initial residual = 0.00209782, Final residual = 9.16145e-07, No Iterations 7
Uncorrected Ubar = 12.644, pressure gradient = -35623.4
Rey = 0.0151606, uTau = 1.97005, nut+ = 0, nuEff+ = 1, y+ = 0.123128, u+ = 0.123128, k+ = 8.5963e-13, epsilon+ = 1.13494e-10, omega+ = 1466.97
ExecutionTime = 0.092813 s  ClockTime = 0 s

Time = 83s

DICPCG:  Solving for Ux, Initial residual = 0.448721, Final residual = 6.54122e-08, No Iterations 3
DICPCG:  Solving for Uy, Initial residual = 0, Final residual = 0, No Iterations 0
smoothSolver:  Solving for epsilon, Initial residual = 0.00035853, Final residual = 6.74837e-07, No Iterations 5
smoothSolver:  Solving for k, Initial residual = 0.00209527, Final residual = 9.10442e-07, No Iterations 7
Uncorrected Ubar = 7.41819, pressure gradient = 35168.2
Rey = 0.0898022, uTau = 4.79472, nut+ = 0, nuEff+ = 1, y+ = 0.29967, u+ = 0.29967, k+ = 1.44764e-13, epsilon+ = 3.23209e-12, omega+ = 248.074
ExecutionTime = 0.094095 s  ClockTime = 0 s

Time = 84s

DICPCG:  Solving for Ux, Initial residual = 0.372259, Final residual = 5.36762e-08, No Iterations 3
DICPCG:  Solving for Uy, Initial residual = 0, Final residual = 0, No Iterations 0
smoothSolver:  Solving for epsilon, Initial residual = 0.000219958, Final residual = 6.28864e-07, No Iterations 5
smoothSolver:  Solving for k, Initial residual = 0.00206141, Final residual = 9.00856e-07, No Iterations 7
Uncorrected Ubar = 12.5212, pressure gradient = -33960.6
Rey = 0.0130161, uTau = 1.82541, nut+ = 0, nuEff+ = 1, y+ = 0.114088, u+ = 0.114088, k+ = 9.98004e-13, epsilon+ = 1.53466e-10, omega+ = 1708.59
ExecutionTime = 0.095047 s  ClockTime = 0 s

Time = 85s

DICPCG:  Solving for Ux, Initial residual = 0.435706, Final residual = 6.35171e-08, No Iterations 3
DICPCG:  Solving for Uy, Initial residual = 0, Final residual = 0, No Iterations 0
smoothSolver:  Solving for epsilon, Initial residual = 0.000353637, Final residual = 6.87713e-07, No Iterations 5
smoothSolver:  Solving for k, Initial residual = 0.00205868, Final residual = 8.95266e-07, No Iterations 7
Uncorrected Ubar = 7.53816, pressure gradient = 33541.3
Rey = 0.0870675, uTau = 4.72115, nut+ = 0, nuEff+ = 1, y+ = 0.295072, u+ = 0.295072, k+ = 1.48845e-13, epsilon+ = 3.42714e-12, omega+ = 255.833
ExecutionTime = 0.096796 s  ClockTime = 0 s

Time = 86s

DICPCG:  Solving for Ux, Initial residual = 0.357003, Final residual = 5.14746e-08, No Iterations 3
DICPCG:  Solving for Uy, Initial residual = 0, Final residual = 0, No Iterations 0
smoothSolver:  Solving for epsilon, Initial residual = 0.00022234, Final residual = 6.44398e-07, No Iterations 5
smoothSolver:  Solving for k, Initial residual = 0.0020268, Final residual = 8.85977e-07, No Iterations 7
Uncorrected Ubar = 12.404, pressure gradient = -32375.1
Rey = 0.0109743, uTau = 1.67613, nut+ = 0, nuEff+ = 1, y+ = 0.104758, u+ = 0.104758, k+ = 1.18004e-12, epsilon+ = 2.15213e-10, omega+ = 2026.42
ExecutionTime = 0.097921 s  ClockTime = 0 s

Time = 87s

DICPCG:  Solving for Ux, Initial residual = 0.422814, Final residual = 6.16401e-08, No Iterations 3
DICPCG:  Solving for Uy, Initial residual = 0, Final residual = 0, No Iterations 0
smoothSolver:  Solving for epsilon, Initial residual = 0.000349019, Final residual = 6.99833e-07, No Iterations 5
smoothSolver:  Solving for k, Initial residual = 0.0020248, Final residual = 8.80492e-07, No Iterations 7
Uncorrected Ubar = 7.65257, pressure gradient = 31990
Rey = 0.084457, uTau = 4.64984, nut+ = 0, nuEff+ = 1, y+ = 0.290615, u+ = 0.290615, k+ = 1.5299e-13, epsilon+ = 3.63104e-12, omega+ = 263.709
ExecutionTime = 0.098839 s  ClockTime = 0 s

Time = 88s

DICPCG:  Solving for Ux, Initial residual = 0.341981, Final residual = 4.93067e-08, No Iterations 3
DICPCG:  Solving for Uy, Initial residual = 0, Final residual = 0, No Iterations 0
smoothSolver:  Solving for epsilon, Initial residual = 0.000224565, Final residual = 6.59479e-07, No Iterations 5
smoothSolver:  Solving for k, Initial residual = 0.0019957, Final residual = 8.71482e-07, No Iterations 7
Uncorrected Ubar = 12.2923, pressure gradient = -30863.3
Rey = 0.00903033, uTau = 1.52045, nut+ = 0, nuEff+ = 1, y+ = 0.0950281, u+ = 0.0950281, k+ = 1.42985e-12, epsilon+ = 3.16899e-10, omega+ = 2462.56
ExecutionTime = 0.099689 s  ClockTime = 0 s

Time = 89s

DICPCG:  Solving for Ux, Initial residual = 0.41006, Final residual = 5.97833e-08, No Iterations 3
DICPCG:  Solving for Uy, Initial residual = 0, Final residual = 0, No Iterations 0
smoothSolver:  Solving for epsilon, Initial residual = 0.000344653, Final residual = 7.1123e-07, No Iterations 5
smoothSolver:  Solving for k, Initial residual = 0.00199519, Final residual = 8.66096e-07, No Iterations 7
Uncorrected Ubar = 7.76165, pressure gradient = 30510.7
Rey = 0.0819646, uTau = 4.58071, nut+ = 0, nuEff+ = 1, y+ = 0.286295, u+ = 0.286295, k+ = 1.57197e-13, epsilon+ = 3.84391e-12, omega+ = 271.697
ExecutionTime = 0.100533 s  ClockTime = 0 s

Time = 90s

DICPCG:  Solving for Ux, Initial residual = 0.327501, Final residual = 4.72169e-08, No Iterations 3
DICPCG:  Solving for Uy, Initial residual = 0, Final residual = 0, No Iterations 0
smoothSolver:  Solving for epsilon, Initial residual = 0.00022664, Final residual = 6.73615e-07, No Iterations 5
smoothSolver:  Solving for k, Initial residual = 0.00196701, Final residual = 8.57261e-07, No Iterations 7
Uncorrected Ubar = 12.1858, pressure gradient = -29421.8
Rey = 0.00717991, uTau = 1.35575, nut+ = 0, nuEff+ = 1, y+ = 0.0847344, u+ = 0.0847344, k+ = 1.79334e-12, epsilon+ = 4.99876e-10, omega+ = 3097.12
ExecutionTime = 0.101528 s  ClockTime = 0 s

Time = 91s

DICPCG:  Solving for Ux, Initial residual = 0.397458, Final residual = 5.79487e-08, No Iterations 3
DICPCG:  Solving for Uy, Initial residual = 0, Final residual = 0, No Iterations 0
smoothSolver:  Solving for epsilon, Initial residual = 0.000340516, Final residual = 7.21936e-07, No Iterations 5
smoothSolver:  Solving for k, Initial residual = 0.00196581, Final residual = 8.51835e-07, No Iterations 7
Uncorrected Ubar = 7.86567, pressure gradient = 29100.2
Rey = 0.0795848, uTau = 4.51373, nut+ = 0, nuEff+ = 1, y+ = 0.282108, u+ = 0.282108, k+ = 1.61463e-13, epsilon+ = 4.06584e-12, omega+ = 279.792
ExecutionTime = 0.102473 s  ClockTime = 0 s

Time = 92s

DICPCG:  Solving for Ux, Initial residual = 0.31355, Final residual = 4.52033e-08, No Iterations 3
DICPCG:  Solving for Uy, Initial residual = 0, Final residual = 0, No Iterations 0
smoothSolver:  Solving for epsilon, Initial residual = 0.000228569, Final residual = 6.86857e-07, No Iterations 5
smoothSolver:  Solving for k, Initial residual = 0.0019393, Final residual = 8.43206e-07, No Iterations 7
Uncorrected Ubar = 12.0842, pressure gradient = -28047.2
Rey = 0.00541877, uTau = 1.1778, nut+ = 0, nuEff+ = 1, y+ = 0.0736123, u+ = 0.0736123, k+ = 2.36987e-12, epsilon+ = 8.75248e-10, omega+ = 4103.6
ExecutionTime = 0.103435 s  ClockTime = 0 s

Time = 93s

DICPCG:  Solving for Ux, Initial residual = 0.379695, Final residual = 5.53618e-08, No Iterations 3
DICPCG:  Solving for Uy, Initial residual = 0, Final residual = 0, No Iterations 0
smoothSolver:  Solving for epsilon, Initial residual = 0.000336588, Final residual = 7.31981e-07, No Iterations 5
smoothSolver:  Solving for k, Initial residual = 0.00193899, Final residual = 8.37865e-07, No Iterations 7
Uncorrected Ubar = 7.96485, pressure gradient = 27755.2
Rey = 0.0773123, uTau = 4.44882, nut+ = 0, nuEff+ = 1, y+ = 0.278051, u+ = 0.278051, k+ = 1.65783e-13, epsilon+ = 4.29692e-12, omega+ = 287.988
ExecutionTime = 0.104401 s  ClockTime = 0 s

Time = 94s

DICPCG:  Solving for Ux, Initial residual = 0.300117, Final residual = 4.32644e-08, No Iterations 3
DICPCG:  Solving for Uy, Initial residual = 0, Final residual = 0, No Iterations 0
smoothSolver:  Solving for epsilon, Initial residual = 0.000230357, Final residual = 6.99255e-07, No Iterations 5
smoothSolver:  Solving for k, Initial residual = 0.00191349, Final residual = 8.2947e-07, No Iterations 7
Uncorrected Ubar = 11.9873, pressure gradient = -26736.6
Rey = 0.00374283, uTau = 0.978859, nut+ = 0, nuEff+ = 1, y+ = 0.0611787, u+ = 0.0611787, k+ = 3.42234e-12, epsilon+ = 1.82986e-09, omega+ = 5940.92
ExecutionTime = 0.105471 s  ClockTime = 0 s

Time = 95s

DICPCG:  Solving for Ux, Initial residual = 0.360518, Final residual = 5.25687e-08, No Iterations 3
DICPCG:  Solving for Uy, Initial residual = 0, Final residual = 0, No Iterations 0
smoothSolver:  Solving for epsilon, Initial residual = 0.000332852, Final residual = 7.41394e-07, No Iterations 5
smoothSolver:  Solving for k, Initial residual = 0.00191275, Final residual = 8.2421e-07, No Iterations 7
Uncorrected Ubar = 8.05943, pressure gradient = 26472.7
Rey = 0.075142, uTau = 4.38593, nut+ = 0, nuEff+ = 1, y+ = 0.27412, u+ = 0.27412, k+ = 1.70155e-13, epsilon+ = 4.53719e-12, omega+ = 296.278
ExecutionTime = 0.106334 s  ClockTime = 0 s

Time = 96s

DICPCG:  Solving for Ux, Initial residual = 0.287038, Final residual = 4.13765e-08, No Iterations 3
DICPCG:  Solving for Uy, Initial residual = 0, Final residual = 0, No Iterations 0
smoothSolver:  Solving for epsilon, Initial residual = 0.000232011, Final residual = 7.10851e-07, No Iterations 5
smoothSolver:  Solving for k, Initial residual = 0.00188789, Final residual = 8.16038e-07, No Iterations 7
Uncorrected Ubar = 11.895, pressure gradient = -25486.9
Rey = 0.00214821, uTau = 0.741581, nut+ = 0, nuEff+ = 1, y+ = 0.0463488, u+ = 0.0463488, k+ = 5.94834e-12, epsilon+ = 5.54121e-09, omega+ = 10350.6
ExecutionTime = 0.10718 s  ClockTime = 0 s

Time = 97s

DICPCG:  Solving for Ux, Initial residual = 0.341768, Final residual = 4.98377e-08, No Iterations 3
DICPCG:  Solving for Uy, Initial residual = 0, Final residual = 0, No Iterations 0
smoothSolver:  Solving for epsilon, Initial residual = 0.000329291, Final residual = 7.50203e-07, No Iterations 5
smoothSolver:  Solving for k, Initial residual = 0.00188698, Final residual = 8.10853e-07, No Iterations 7
Uncorrected Ubar = 8.14961, pressure gradient = 25249.7
Rey = 0.0730691, uTau = 4.32501, nut+ = 0, nuEff+ = 1, y+ = 0.270313, u+ = 0.270313, k+ = 1.74575e-13, epsilon+ = 4.78669e-12, omega+ = 304.656
ExecutionTime = 0.10808 s  ClockTime = 0 s

Time = 98s

DICPCG:  Solving for Ux, Initial residual = 0.274345, Final residual = 3.95443e-08, No Iterations 3
DICPCG:  Solving for Uy, Initial residual = 0, Final residual = 0, No Iterations 0
smoothSolver:  Solving for epsilon, Initial residual = 0.000233531, Final residual = 7.21681e-07, No Iterations 5
smoothSolver:  Solving for k, Initial residual = 0.00186405, Final residual = 8.02893e-07, No Iterations 7
Uncorrected Ubar = 11.8069, pressure gradient = -24295.2
Rey = 0.000631186, uTau = 0.401975, nut+ = 0, nuEff+ = 1, y+ = 0.0251234, u+ = 0.0251234, k+ = 2.01982e-11, epsilon+ = 6.40372e-08, omega+ = 35227
ExecutionTime = 0.108936 s  ClockTime = 0 s

Time = 99s

DICPCG:  Solving for Ux, Initial residual = 0.323754, Final residual = 4.7214e-08, No Iterations 3
DICPCG:  Solving for Uy, Initial residual = 0, Final residual = 0, No Iterations 0
smoothSolver:  Solving for epsilon, Initial residual = 0.00032588, Final residual = 7.58407e-07, No Iterations 5
smoothSolver:  Solving for k, Initial residual = 0.00186408, Final residual = 7.97781e-07, No Iterations 7
Uncorrected Ubar = 8.2356, pressure gradient = 24083.6
Rey = 0.071089, uTau = 4.266, nut+ = 0, nuEff+ = 1, y+ = 0.266625, u+ = 0.266625, k+ = 1.79039e-13, epsilon+ = 5.04541e-12, omega+ = 313.116
ExecutionTime = 0.10998 s  ClockTime = 0 s

Time = 100s

DICPCG:  Solving for Ux, Initial residual = 0.262163, Final residual = 3.77857e-08, No Iterations 3
DICPCG:  Solving for Uy, Initial residual = 0, Final residual = 0, No Iterations 0
smoothSolver:  Solving for epsilon, Initial residual = 0.000234911, Final residual = 7.31741e-07, No Iterations 5
smoothSolver:  Solving for k, Initial residual = 0.00184193, Final residual = 7.90095e-07, No Iterations 7
Uncorrected Ubar = 11.723, pressure gradient = -23159
Rey = 0.000811809, uTau = 0.455876, nut+ = 0, nuEff+ = 1, y+ = 0.0284923, u+ = 0.0284923, k+ = 1.56697e-11, epsilon+ = 3.86254e-08, omega+ = 27388.6
ExecutionTime = 0.115784 s  ClockTime = 0 s

Time = 101s

DICPCG:  Solving for Ux, Initial residual = 0.306507, Final residual = 4.47019e-08, No Iterations 3
DICPCG:  Solving for Uy, Initial residual = 0, Final residual = 0, No Iterations 0
smoothSolver:  Solving for epsilon, Initial residual = 0.000322596, Final residual = 7.66189e-07, No Iterations 5
smoothSolver:  Solving for k, Initial residual = 0.00184143, Final residual = 7.8543e-07, No Iterations 7
Uncorrected Ubar = 8.31759, pressure gradient = 22971.6
Rey = 0.0691973, uTau = 4.20886, nut+ = 0, nuEff+ = 1, y+ = 0.263054, u+ = 0.263054, k+ = 1.83544e-13, epsilon+ = 5.31332e-12, omega+ = 321.65
ExecutionTime = 0.116946 s  ClockTime = 0 s

Time = 102s

DICPCG:  Solving for Ux, Initial residual = 0.250475, Final residual = 3.60986e-08, No Iterations 3
DICPCG:  Solving for Uy, Initial residual = 0, Final residual = 0, No Iterations 0
smoothSolver:  Solving for epsilon, Initial residual = 0.000236165, Final residual = 7.41098e-07, No Iterations 5
smoothSolver:  Solving for k, Initial residual = 0.0018194, Final residual = 7.78422e-07, No Iterations 7
Uncorrected Ubar = 11.6429, pressure gradient = -22075.6
Rey = 0.00218418, uTau = 0.747764, nut+ = 0, nuEff+ = 1, y+ = 0.0467352, u+ = 0.0467352, k+ = 5.81183e-12, epsilon+ = 5.32454e-09, omega+ = 10179.5
ExecutionTime = 0.118109 s  ClockTime = 0 s

Time = 103s

DICPCG:  Solving for Ux, Initial residual = 0.290156, Final residual = 4.23204e-08, No Iterations 3
DICPCG:  Solving for Uy, Initial residual = 0, Final residual = 0, No Iterations 0
smoothSolver:  Solving for epsilon, Initial residual = 0.000319449, Final residual = 7.73503e-07, No Iterations 5
smoothSolver:  Solving for k, Initial residual = 0.00181822, Final residual = 7.73999e-07, No Iterations 7
Uncorrected Ubar = 8.39577, pressure gradient = 21911.3
Rey = 0.06739, uTau = 4.15353, nut+ = 0, nuEff+ = 1, y+ = 0.259596, u+ = 0.259596, k+ = 1.88085e-13, epsilon+ = 5.59037e-12, omega+ = 330.252
ExecutionTime = 0.118997 s  ClockTime = 0 s

Time = 104s

DICPCG:  Solving for Ux, Initial residual = 0.239267, Final residual = 3.44806e-08, No Iterations 3
DICPCG:  Solving for Uy, Initial residual = 0, Final residual = 0, No Iterations 0
smoothSolver:  Solving for epsilon, Initial residual = 0.000237304, Final residual = 7.49801e-07, No Iterations 5
smoothSolver:  Solving for k, Initial residual = 0.00179709, Final residual = 7.67448e-07, No Iterations 7
Uncorrected Ubar = 11.5666, pressure gradient = -21042.5
Rey = 0.00348919, uTau = 0.94511, nut+ = 0, nuEff+ = 1, y+ = 0.0590694, u+ = 0.0590694, k+ = 3.63082e-12, epsilon+ = 2.08223e-09, omega+ = 6372.09
ExecutionTime = 0.119891 s  ClockTime = 0 s

Time = 105s

DICPCG:  Solving for Ux, Initial residual = 0.274628, Final residual = 4.00589e-08, No Iterations 3
DICPCG:  Solving for Uy, Initial residual = 0, Final residual = 0, No Iterations 0
smoothSolver:  Solving for epsilon, Initial residual = 0.000316427, Final residual = 7.80464e-07, No Iterations 5
smoothSolver:  Solving for k, Initial residual = 0.00179677, Final residual = 7.63145e-07, No Iterations 7
Uncorrected Ubar = 8.47032, pressure gradient = 20900.3
Rey = 0.0656631, uTau = 4.09997, nut+ = 0, nuEff+ = 1, y+ = 0.256248, u+ = 0.256248, k+ = 1.92657e-13, epsilon+ = 5.87648e-12, omega+ = 338.914
ExecutionTime = 0.120735 s  ClockTime = 0 s

Time = 106s

DICPCG:  Solving for Ux, Initial residual = 0.228468, Final residual = 3.29217e-08, No Iterations 3
DICPCG:  Solving for Uy, Initial residual = 0, Final residual = 0, No Iterations 0
smoothSolver:  Solving for epsilon, Initial residual = 0.000238332, Final residual = 7.57882e-07, No Iterations 5
smoothSolver:  Solving for k, Initial residual = 0.0017769, Final residual = 7.57132e-07, No Iterations 7
Uncorrected Ubar = 11.4938, pressure gradient = -20057.5
Rey = 0.00472995, uTau = 1.10039, nut+ = 0, nuEff+ = 1, y+ = 0.0687746, u+ = 0.0687746, k+ = 2.67325e-12, epsilon+ = 1.1309e-09, omega+ = 4700.47
ExecutionTime = 0.121579 s  ClockTime = 0 s

Time = 107s

DICPCG:  Solving for Ux, Initial residual = 0.259991, Final residual = 3.79271e-08, No Iterations 3
DICPCG:  Solving for Uy, Initial residual = 0, Final residual = 0, No Iterations 0
smoothSolver:  Solving for epsilon, Initial residual = 0.000313521, Final residual = 7.86894e-07, No Iterations 5
smoothSolver:  Solving for k, Initial residual = 0.00177608, Final residual = 7.53141e-07, No Iterations 7
Uncorrected Ubar = 8.54141, pressure gradient = 19936.2
Rey = 0.0640128, uTau = 4.04812, nut+ = 0, nuEff+ = 1, y+ = 0.253007, u+ = 0.253007, k+ = 1.97258e-13, epsilon+ = 6.17153e-12, omega+ = 347.628
ExecutionTime = 0.122439 s  ClockTime = 0 s

Time = 108s

DICPCG:  Solving for Ux, Initial residual = 0.217958, Final residual = 3.14045e-08, No Iterations 3
DICPCG:  Solving for Uy, Initial residual = 0, Final residual = 0, No Iterations 0
smoothSolver:  Solving for epsilon, Initial residual = 0.000239253, Final residual = 7.65368e-07, No Iterations 5
smoothSolver:  Solving for k, Initial residual = 0.00175659, Final residual = 7.47204e-07, No Iterations 7
Uncorrected Ubar = 11.4243, pressure gradient = -19118.3
Rey = 0.00590944, uTau = 1.22997, nut+ = 0, nuEff+ = 1, y+ = 0.0768729, u+ = 0.0768729, k+ = 2.13576e-12, epsilon+ = 7.23168e-10, omega+ = 3762.22
ExecutionTime = 0.123292 s  ClockTime = 0 s

Time = 109s

DICPCG:  Solving for Ux, Initial residual = 0.246023, Final residual = 3.58925e-08, No Iterations 3
DICPCG:  Solving for Uy, Initial residual = 0, Final residual = 0, No Iterations 0
smoothSolver:  Solving for epsilon, Initial residual = 0.000310721, Final residual = 7.92815e-07, No Iterations 5
smoothSolver:  Solving for k, Initial residual = 0.00175531, Final residual = 7.43196e-07, No Iterations 7
Uncorrected Ubar = 8.60919, pressure gradient = 19016.9
Rey = 0.0624356, uTau = 3.99794, nut+ = 0, nuEff+ = 1, y+ = 0.249871, u+ = 0.249871, k+ = 2.01883e-13, epsilon+ = 6.47537e-12, omega+ = 356.387
ExecutionTime = 0.124251 s  ClockTime = 0 s

Time = 110s

DICPCG:  Solving for Ux, Initial residual = 0.207906, Final residual = 2.99535e-08, No Iterations 3
DICPCG:  Solving for Uy, Initial residual = 0, Final residual = 0, No Iterations 0
smoothSolver:  Solving for epsilon, Initial residual = 0.000240072, Final residual = 7.72288e-07, No Iterations 5
smoothSolver:  Solving for k, Initial residual = 0.00173619, Final residual = 7.37442e-07, No Iterations 7
Uncorrected Ubar = 11.3582, pressure gradient = -18222.7
Rey = 0.00703051, uTau = 1.34157, nut+ = 0, nuEff+ = 1, y+ = 0.0838481, u+ = 0.0838481, k+ = 1.79205e-12, epsilon+ = 5.10022e-10, omega+ = 3162.25
ExecutionTime = 0.125255 s  ClockTime = 0 s

Time = 111s

DICPCG:  Solving for Ux, Initial residual = 0.232838, Final residual = 3.39722e-08, No Iterations 3
DICPCG:  Solving for Uy, Initial residual = 0, Final residual = 0, No Iterations 0
smoothSolver:  Solving for epsilon, Initial residual = 0.000308019, Final residual = 7.9825e-07, No Iterations 5
smoothSolver:  Solving for k, Initial residual = 0.00173448, Final residual = 7.33775e-07, No Iterations 7
Uncorrected Ubar = 8.67382, pressure gradient = 18140.3
Rey = 0.0609281, uTau = 3.94938, nut+ = 0, nuEff+ = 1, y+ = 0.246836, u+ = 0.246836, k+ = 2.06528e-13, epsilon+ = 6.78784e-12, omega+ = 365.183
ExecutionTime = 0.126259 s  ClockTime = 0 s

Time = 112s

DICPCG:  Solving for Ux, Initial residual = 0.198295, Final residual = 2.85661e-08, No Iterations 3
DICPCG:  Solving for Uy, Initial residual = 0, Final residual = 0, No Iterations 0
smoothSolver:  Solving for epsilon, Initial residual = 0.000240793, Final residual = 7.78665e-07, No Iterations 5
smoothSolver:  Solving for k, Initial residual = 0.00171597, Final residual = 7.28531e-07, No Iterations 7
Uncorrected Ubar = 11.295, pressure gradient = -17368.8
Rey = 0.00809588, uTau = 1.43963, nut+ = 0, nuEff+ = 1, y+ = 0.0899771, u+ = 0.0899771, k+ = 1.55361e-12, epsilon+ = 3.83971e-10, omega+ = 2746.08
ExecutionTime = 0.127124 s  ClockTime = 0 s

Time = 113s

DICPCG:  Solving for Ux, Initial residual = 0.220413, Final residual = 3.21625e-08, No Iterations 3
DICPCG:  Solving for Uy, Initial residual = 0, Final residual = 0, No Iterations 0
smoothSolver:  Solving for epsilon, Initial residual = 0.000305407, Final residual = 8.03218e-07, No Iterations 5
smoothSolver:  Solving for k, Initial residual = 0.0017147, Final residual = 7.24687e-07, No Iterations 7
Uncorrected Ubar = 8.73545, pressure gradient = 17304.4
Rey = 0.059487, uTau = 3.90239, nut+ = 0, nuEff+ = 1, y+ = 0.2439, u+ = 0.2439, k+ = 2.11188e-13, epsilon+ = 7.10874e-12, omega+ = 374.009
ExecutionTime = 0.128417 s  ClockTime = 0 s

Time = 114s

DICPCG:  Solving for Ux, Initial residual = 0.189108, Final residual = 2.72399e-08, No Iterations 3
DICPCG:  Solving for Uy, Initial residual = 0, Final residual = 0, No Iterations 0
smoothSolver:  Solving for epsilon, Initial residual = 0.000241419, Final residual = 7.84523e-07, No Iterations 5
smoothSolver:  Solving for k, Initial residual = 0.00169709, Final residual = 7.19342e-07, No Iterations 7
Uncorrected Ubar = 11.2349, pressure gradient = -16554.5
Rey = 0.00910814, uTau = 1.52698, nut+ = 0, nuEff+ = 1, y+ = 0.0954366, u+ = 0.0954366, k+ = 1.37873e-12, epsilon+ = 3.02874e-10, omega+ = 2440.85
ExecutionTime = 0.129928 s  ClockTime = 0 s

Time = 115s

DICPCG:  Solving for Ux, Initial residual = 0.208699, Final residual = 3.04563e-08, No Iterations 3
DICPCG:  Solving for Uy, Initial residual = 0, Final residual = 0, No Iterations 0
smoothSolver:  Solving for epsilon, Initial residual = 0.000302879, Final residual = 8.07739e-07, No Iterations 5
smoothSolver:  Solving for k, Initial residual = 0.00169536, Final residual = 7.15463e-07, No Iterations 7
Uncorrected Ubar = 8.79421, pressure gradient = 16507.4
Rey = 0.0581093, uTau = 3.85694, nut+ = 0, nuEff+ = 1, y+ = 0.241059, u+ = 0.241059, k+ = 2.15858e-13, epsilon+ = 7.43783e-12, omega+ = 382.856
ExecutionTime = 0.131198 s  ClockTime = 0 s

Time = 116s

DICPCG:  Solving for Ux, Initial residual = 0.180329, Final residual = 2.59725e-08, No Iterations 3
DICPCG:  Solving for Uy, Initial residual = 0, Final residual = 0, No Iterations 0
smoothSolver:  Solving for epsilon, Initial residual = 0.000241955, Final residual = 7.89885e-07, No Iterations 5
smoothSolver:  Solving for k, Initial residual = 0.00167802, Final residual = 7.10161e-07, No Iterations 7
Uncorrected Ubar = 11.1775, pressure gradient = -15778.1
Rey = 0.0100698, uTau = 1.60557, nut+ = 0, nuEff+ = 1, y+ = 0.100348, u+ = 0.100348, k+ = 1.24514e-12, epsilon+ = 2.47403e-10, omega+ = 2207.72
ExecutionTime = 0.132096 s  ClockTime = 0 s

Time = 117s

DICPCG:  Solving for Ux, Initial residual = 0.197578, Final residual = 2.88365e-08, No Iterations 3
DICPCG:  Solving for Uy, Initial residual = 0, Final residual = 0, No Iterations 0
smoothSolver:  Solving for epsilon, Initial residual = 0.000300428, Final residual = 8.1183e-07, No Iterations 5
smoothSolver:  Solving for k, Initial residual = 0.00167587, Final residual = 7.06558e-07, No Iterations 7
Uncorrected Ubar = 8.85025, pressure gradient = 15747.4
Rey = 0.056792, uTau = 3.81297, nut+ = 0, nuEff+ = 1, y+ = 0.238311, u+ = 0.238311, k+ = 2.20536e-13, epsilon+ = 7.77486e-12, omega+ = 391.716
ExecutionTime = 0.133073 s  ClockTime = 0 s

Time = 118s

DICPCG:  Solving for Ux, Initial residual = 0.171922, Final residual = 2.4759e-08, No Iterations 3
DICPCG:  Solving for Uy, Initial residual = 0, Final residual = 0, No Iterations 0
smoothSolver:  Solving for epsilon, Initial residual = 0.000242404, Final residual = 7.94768e-07, No Iterations 5
smoothSolver:  Solving for k, Initial residual = 0.00165881, Final residual = 7.01647e-07, No Iterations 7
Uncorrected Ubar = 11.1228, pressure gradient = -15037.9
Rey = 0.0109832, uTau = 1.67681, nut+ = 0, nuEff+ = 1, y+ = 0.104801, u+ = 0.104801, k+ = 1.1399e-12, epsilon+ = 2.07655e-10, omega+ = 2024.1
ExecutionTime = 0.134386 s  ClockTime = 0 s

Time = 119s

DICPCG:  Solving for Ux, Initial residual = 0.187091, Final residual = 2.7309e-08, No Iterations 3
DICPCG:  Solving for Uy, Initial residual = 0, Final residual = 0, No Iterations 0
smoothSolver:  Solving for epsilon, Initial residual = 0.000298048, Final residual = 8.15506e-07, No Iterations 5
smoothSolver:  Solving for k, Initial residual = 0.00165628, Final residual = 6.98056e-07, No Iterations 7
Uncorrected Ubar = 8.90368, pressure gradient = 15022.6
Rey = 0.0555324, uTau = 3.77045, nut+ = 0, nuEff+ = 1, y+ = 0.235653, u+ = 0.235653, k+ = 2.25215e-13, epsilon+ = 8.11954e-12, omega+ = 400.582
ExecutionTime = 0.135391 s  ClockTime = 0 s

Time = 120s

[...]
Uncorrected Ubar = 10, pressure gradient = 120.22
Rey = 0.0234808, uTau = 2.45175, nut+ = 0, nuEff+ = 1, y+ = 0.153234, u+ = 0.153234, k+ = 5.87777e-13, epsilon+ = 5.00316e-11, omega+ = 945.777
ExecutionTime = 1.03117 s  ClockTime = 1 s

Time = 971s

DICPCG:  Solving for Ux, Initial residual = 6.34501e-06, Final residual = 1.09941e-09, No Iterations 1
DICPCG:  Solving for Uy, Initial residual = 0, Final residual = 0, No Iterations 0
smoothSolver:  Solving for epsilon, Initial residual = 0.000164859, Final residual = 4.6121e-07, No Iterations 5
smoothSolver:  Solving for k, Initial residual = 0.000513087, Final residual = 6.30428e-07, No Iterations 6
Uncorrected Ubar = 10, pressure gradient = 120.219
Rey = 0.0234805, uTau = 2.45173, nut+ = 0, nuEff+ = 1, y+ = 0.153233, u+ = 0.153233, k+ = 5.88173e-13, epsilon+ = 5.00659e-11, omega+ = 945.789
ExecutionTime = 1.03202 s  ClockTime = 1 s

Time = 972s

DICPCG:  Solving for Ux, Initial residual = 6.30744e-06, Final residual = 1.09273e-09, No Iterations 1
DICPCG:  Solving for Uy, Initial residual = 0, Final residual = 0, No Iterations 0
smoothSolver:  Solving for epsilon, Initial residual = 0.000164916, Final residual = 4.61349e-07, No Iterations 5
smoothSolver:  Solving for k, Initial residual = 0.000513267, Final residual = 6.30648e-07, No Iterations 6
Uncorrected Ubar = 10, pressure gradient = 120.217
Rey = 0.0234802, uTau = 2.45172, nut+ = 0, nuEff+ = 1, y+ = 0.153232, u+ = 0.153232, k+ = 5.88569e-13, epsilon+ = 5.01002e-11, omega+ = 945.801
ExecutionTime = 1.03287 s  ClockTime = 1 s

Time = 973s

DICPCG:  Solving for Ux, Initial residual = 6.27029e-06, Final residual = 1.08645e-09, No Iterations 1
DICPCG:  Solving for Uy, Initial residual = 0, Final residual = 0, No Iterations 0
smoothSolver:  Solving for epsilon, Initial residual = 0.000164972, Final residual = 4.61487e-07, No Iterations 5
smoothSolver:  Solving for k, Initial residual = 0.000513446, Final residual = 6.30866e-07, No Iterations 6
Uncorrected Ubar = 10, pressure gradient = 120.216
Rey = 0.0234799, uTau = 2.4517, nut+ = 0, nuEff+ = 1, y+ = 0.153231, u+ = 0.153231, k+ = 5.88965e-13, epsilon+ = 5.01345e-11, omega+ = 945.812
ExecutionTime = 1.03438 s  ClockTime = 1 s

Time = 974s

DICPCG:  Solving for Ux, Initial residual = 6.23316e-06, Final residual = 1.07986e-09, No Iterations 1
DICPCG:  Solving for Uy, Initial residual = 0, Final residual = 0, No Iterations 0
smoothSolver:  Solving for epsilon, Initial residual = 0.000165028, Final residual = 4.61624e-07, No Iterations 5
smoothSolver:  Solving for k, Initial residual = 0.000513624, Final residual = 6.31083e-07, No Iterations 6
Uncorrected Ubar = 10, pressure gradient = 120.214
Rey = 0.0234796, uTau = 2.45169, nut+ = 0, nuEff+ = 1, y+ = 0.15323, u+ = 0.15323, k+ = 5.89362e-13, epsilon+ = 5.01689e-11, omega+ = 945.824
ExecutionTime = 1.03556 s  ClockTime = 1 s

Time = 975s

DICPCG:  Solving for Ux, Initial residual = 6.19645e-06, Final residual = 1.07366e-09, No Iterations 1
DICPCG:  Solving for Uy, Initial residual = 0, Final residual = 0, No Iterations 0
smoothSolver:  Solving for epsilon, Initial residual = 0.000165084, Final residual = 4.61761e-07, No Iterations 5
smoothSolver:  Solving for k, Initial residual = 0.000513801, Final residual = 6.31299e-07, No Iterations 6
Uncorrected Ubar = 10, pressure gradient = 120.213
Rey = 0.0234793, uTau = 2.45167, nut+ = 0, nuEff+ = 1, y+ = 0.15323, u+ = 0.15323, k+ = 5.89759e-13, epsilon+ = 5.02034e-11, omega+ = 945.835
ExecutionTime = 1.03665 s  ClockTime = 1 s

Time = 976s

DICPCG:  Solving for Ux, Initial residual = 6.15976e-06, Final residual = 1.06715e-09, No Iterations 1
DICPCG:  Solving for Uy, Initial residual = 0, Final residual = 0, No Iterations 0
smoothSolver:  Solving for epsilon, Initial residual = 0.000165139, Final residual = 4.61897e-07, No Iterations 5
smoothSolver:  Solving for k, Initial residual = 0.000513977, Final residual = 6.31513e-07, No Iterations 6
Uncorrected Ubar = 10, pressure gradient = 120.211
Rey = 0.023479, uTau = 2.45166, nut+ = 0, nuEff+ = 1, y+ = 0.153229, u+ = 0.153229, k+ = 5.90157e-13, epsilon+ = 5.02378e-11, omega+ = 945.846
ExecutionTime = 1.03753 s  ClockTime = 1 s

Time = 977s

DICPCG:  Solving for Ux, Initial residual = 6.12348e-06, Final residual = 1.06101e-09, No Iterations 1
DICPCG:  Solving for Uy, Initial residual = 0, Final residual = 0, No Iterations 0
smoothSolver:  Solving for epsilon, Initial residual = 0.000165194, Final residual = 4.62032e-07, No Iterations 5
smoothSolver:  Solving for k, Initial residual = 0.000514152, Final residual = 6.31727e-07, No Iterations 6
Uncorrected Ubar = 10, pressure gradient = 120.21
Rey = 0.0234787, uTau = 2.45164, nut+ = 0, nuEff+ = 1, y+ = 0.153228, u+ = 0.153228, k+ = 5.90555e-13, epsilon+ = 5.02723e-11, omega+ = 945.858
ExecutionTime = 1.03843 s  ClockTime = 1 s

Time = 978s

DICPCG:  Solving for Ux, Initial residual = 6.08723e-06, Final residual = 1.05458e-09, No Iterations 1
DICPCG:  Solving for Uy, Initial residual = 0, Final residual = 0, No Iterations 0
smoothSolver:  Solving for epsilon, Initial residual = 0.000165249, Final residual = 4.62166e-07, No Iterations 5
smoothSolver:  Solving for k, Initial residual = 0.000514325, Final residual = 6.31939e-07, No Iterations 6
Uncorrected Ubar = 10, pressure gradient = 120.208
Rey = 0.0234784, uTau = 2.45163, nut+ = 0, nuEff+ = 1, y+ = 0.153227, u+ = 0.153227, k+ = 5.90953e-13, epsilon+ = 5.03068e-11, omega+ = 945.869
ExecutionTime = 1.03938 s  ClockTime = 1 s

Time = 979s

DICPCG:  Solving for Ux, Initial residual = 6.05137e-06, Final residual = 1.04851e-09, No Iterations 1
DICPCG:  Solving for Uy, Initial residual = 0, Final residual = 0, No Iterations 0
smoothSolver:  Solving for epsilon, Initial residual = 0.000165303, Final residual = 4.623e-07, No Iterations 5
smoothSolver:  Solving for k, Initial residual = 0.000514498, Final residual = 6.32149e-07, No Iterations 6
Uncorrected Ubar = 10, pressure gradient = 120.207
Rey = 0.0234781, uTau = 2.45161, nut+ = 0, nuEff+ = 1, y+ = 0.153226, u+ = 0.153226, k+ = 5.91352e-13, epsilon+ = 5.03414e-11, omega+ = 945.88
ExecutionTime = 1.04024 s  ClockTime = 1 s

Time = 980s

DICPCG:  Solving for Ux, Initial residual = 6.01555e-06, Final residual = 1.04216e-09, No Iterations 1
DICPCG:  Solving for Uy, Initial residual = 0, Final residual = 0, No Iterations 0
smoothSolver:  Solving for epsilon, Initial residual = 0.000165357, Final residual = 4.62432e-07, No Iterations 5
smoothSolver:  Solving for k, Initial residual = 0.00051467, Final residual = 6.32359e-07, No Iterations 6
Uncorrected Ubar = 10, pressure gradient = 120.205
Rey = 0.0234779, uTau = 2.4516, nut+ = 0, nuEff+ = 1, y+ = 0.153225, u+ = 0.153225, k+ = 5.91751e-13, epsilon+ = 5.03759e-11, omega+ = 945.891
ExecutionTime = 1.04107 s  ClockTime = 1 s

Time = 981s

DICPCG:  Solving for Ux, Initial residual = 5.98011e-06, Final residual = 1.03616e-09, No Iterations 1
DICPCG:  Solving for Uy, Initial residual = 0, Final residual = 0, No Iterations 0
smoothSolver:  Solving for epsilon, Initial residual = 0.000165411, Final residual = 4.62564e-07, No Iterations 5
smoothSolver:  Solving for k, Initial residual = 0.000514841, Final residual = 6.32567e-07, No Iterations 6
Uncorrected Ubar = 10, pressure gradient = 120.204
Rey = 0.0234776, uTau = 2.45158, nut+ = 0, nuEff+ = 1, y+ = 0.153224, u+ = 0.153224, k+ = 5.92151e-13, epsilon+ = 5.04105e-11, omega+ = 945.902
ExecutionTime = 1.0419 s  ClockTime = 1 s

Time = 982s

DICPCG:  Solving for Ux, Initial residual = 5.94472e-06, Final residual = 1.02989e-09, No Iterations 1
DICPCG:  Solving for Uy, Initial residual = 0, Final residual = 0, No Iterations 0
smoothSolver:  Solving for epsilon, Initial residual = 0.000165464, Final residual = 4.62696e-07, No Iterations 5
smoothSolver:  Solving for k, Initial residual = 0.000515011, Final residual = 6.32774e-07, No Iterations 6
Uncorrected Ubar = 10, pressure gradient = 120.202
Rey = 0.0234773, uTau = 2.45157, nut+ = 0, nuEff+ = 1, y+ = 0.153223, u+ = 0.153223, k+ = 5.92551e-13, epsilon+ = 5.04452e-11, omega+ = 945.913
ExecutionTime = 1.04278 s  ClockTime = 1 s

Time = 983s

DICPCG:  Solving for Ux, Initial residual = 5.90969e-06, Final residual = 1.02396e-09, No Iterations 1
DICPCG:  Solving for Uy, Initial residual = 0, Final residual = 0, No Iterations 0
smoothSolver:  Solving for epsilon, Initial residual = 0.000165517, Final residual = 4.62826e-07, No Iterations 5
smoothSolver:  Solving for k, Initial residual = 0.00051518, Final residual = 6.3298e-07, No Iterations 6
Uncorrected Ubar = 10, pressure gradient = 120.201
Rey = 0.023477, uTau = 2.45155, nut+ = 0, nuEff+ = 1, y+ = 0.153222, u+ = 0.153222, k+ = 5.92952e-13, epsilon+ = 5.04799e-11, omega+ = 945.924
ExecutionTime = 1.04372 s  ClockTime = 1 s

Time = 984s

DICPCG:  Solving for Ux, Initial residual = 5.87472e-06, Final residual = 1.01777e-09, No Iterations 1
DICPCG:  Solving for Uy, Initial residual = 0, Final residual = 0, No Iterations 0
smoothSolver:  Solving for epsilon, Initial residual = 0.00016557, Final residual = 4.62956e-07, No Iterations 5
smoothSolver:  Solving for k, Initial residual = 0.000515347, Final residual = 6.33185e-07, No Iterations 6
Uncorrected Ubar = 10, pressure gradient = 120.2
Rey = 0.0234767, uTau = 2.45154, nut+ = 0, nuEff+ = 1, y+ = 0.153221, u+ = 0.153221, k+ = 5.93352e-13, epsilon+ = 5.05146e-11, omega+ = 945.935
ExecutionTime = 1.04458 s  ClockTime = 1 s

Time = 985s

DICPCG:  Solving for Ux, Initial residual = 5.8401e-06, Final residual = 1.0119e-09, No Iterations 1
DICPCG:  Solving for Uy, Initial residual = 0, Final residual = 0, No Iterations 0
smoothSolver:  Solving for epsilon, Initial residual = 0.000165623, Final residual = 4.63085e-07, No Iterations 5
smoothSolver:  Solving for k, Initial residual = 0.000515514, Final residual = 6.33388e-07, No Iterations 6
Uncorrected Ubar = 10, pressure gradient = 120.198
Rey = 0.0234765, uTau = 2.45153, nut+ = 0, nuEff+ = 1, y+ = 0.15322, u+ = 0.15322, k+ = 5.93754e-13, epsilon+ = 5.05493e-11, omega+ = 945.946
ExecutionTime = 1.0455 s  ClockTime = 1 s

Time = 986s

DICPCG:  Solving for Ux, Initial residual = 5.80554e-06, Final residual = 1.00579e-09, No Iterations 1
DICPCG:  Solving for Uy, Initial residual = 0, Final residual = 0, No Iterations 0
smoothSolver:  Solving for epsilon, Initial residual = 0.000165675, Final residual = 4.63213e-07, No Iterations 5
smoothSolver:  Solving for k, Initial residual = 0.00051568, Final residual = 6.3359e-07, No Iterations 6
Uncorrected Ubar = 10, pressure gradient = 120.197
Rey = 0.0234762, uTau = 2.45151, nut+ = 0, nuEff+ = 1, y+ = 0.153219, u+ = 0.153219, k+ = 5.94155e-13, epsilon+ = 5.05841e-11, omega+ = 945.957
ExecutionTime = 1.04636 s  ClockTime = 1 s

Time = 987s

DICPCG:  Solving for Ux, Initial residual = 5.77134e-06, Final residual = 9.99978e-10, No Iterations 1
DICPCG:  Solving for Uy, Initial residual = 0, Final residual = 0, No Iterations 0
smoothSolver:  Solving for epsilon, Initial residual = 0.000165727, Final residual = 4.63341e-07, No Iterations 5
smoothSolver:  Solving for k, Initial residual = 0.000515845, Final residual = 6.33791e-07, No Iterations 6
Uncorrected Ubar = 10, pressure gradient = 120.195
Rey = 0.0234759, uTau = 2.4515, nut+ = 0, nuEff+ = 1, y+ = 0.153219, u+ = 0.153219, k+ = 5.94557e-13, epsilon+ = 5.06189e-11, omega+ = 945.967
ExecutionTime = 1.0472 s  ClockTime = 1 s

Time = 988s

DICPCG:  Solving for Ux, Initial residual = 5.73719e-06, Final residual = 9.93945e-10, No Iterations 1
DICPCG:  Solving for Uy, Initial residual = 0, Final residual = 0, No Iterations 0
smoothSolver:  Solving for epsilon, Initial residual = 0.000165778, Final residual = 4.63468e-07, No Iterations 5
smoothSolver:  Solving for k, Initial residual = 0.000516009, Final residual = 6.33991e-07, No Iterations 6
Uncorrected Ubar = 10, pressure gradient = 120.194
Rey = 0.0234757, uTau = 2.45148, nut+ = 0, nuEff+ = 1, y+ = 0.153218, u+ = 0.153218, k+ = 5.9496e-13, epsilon+ = 5.06537e-11, omega+ = 945.978
ExecutionTime = 1.04802 s  ClockTime = 1 s

Time = 989s

DICPCG:  Solving for Ux, Initial residual = 5.70338e-06, Final residual = 9.882e-10, No Iterations 1
DICPCG:  Solving for Uy, Initial residual = 0, Final residual = 0, No Iterations 0
smoothSolver:  Solving for epsilon, Initial residual = 0.00016583, Final residual = 4.63594e-07, No Iterations 5
smoothSolver:  Solving for k, Initial residual = 0.000516172, Final residual = 6.3419e-07, No Iterations 6
Uncorrected Ubar = 10, pressure gradient = 120.193
Rey = 0.0234754, uTau = 2.45147, nut+ = 0, nuEff+ = 1, y+ = 0.153217, u+ = 0.153217, k+ = 5.95363e-13, epsilon+ = 5.06886e-11, omega+ = 945.988
ExecutionTime = 1.0489 s  ClockTime = 1 s

Time = 990s

DICPCG:  Solving for Ux, Initial residual = 5.66964e-06, Final residual = 9.82243e-10, No Iterations 1
DICPCG:  Solving for Uy, Initial residual = 0, Final residual = 0, No Iterations 0
smoothSolver:  Solving for epsilon, Initial residual = 0.000165881, Final residual = 4.63719e-07, No Iterations 5
smoothSolver:  Solving for k, Initial residual = 0.000516334, Final residual = 6.34388e-07, No Iterations 6
Uncorrected Ubar = 10, pressure gradient = 120.191
Rey = 0.0234751, uTau = 2.45145, nut+ = 0, nuEff+ = 1, y+ = 0.153216, u+ = 0.153216, k+ = 5.95766e-13, epsilon+ = 5.07234e-11, omega+ = 945.999
ExecutionTime = 1.05024 s  ClockTime = 1 s

Time = 991s

DICPCG:  Solving for Ux, Initial residual = 5.63622e-06, Final residual = 9.76562e-10, No Iterations 1
DICPCG:  Solving for Uy, Initial residual = 0, Final residual = 0, No Iterations 0
smoothSolver:  Solving for epsilon, Initial residual = 0.000165931, Final residual = 4.63844e-07, No Iterations 5
smoothSolver:  Solving for k, Initial residual = 0.000516495, Final residual = 6.34584e-07, No Iterations 6
Uncorrected Ubar = 10, pressure gradient = 120.19
Rey = 0.0234749, uTau = 2.45144, nut+ = 0, nuEff+ = 1, y+ = 0.153215, u+ = 0.153215, k+ = 5.9617e-13, epsilon+ = 5.07584e-11, omega+ = 946.009
ExecutionTime = 1.05149 s  ClockTime = 1 s

Time = 992s

DICPCG:  Solving for Ux, Initial residual = 5.60288e-06, Final residual = 9.70679e-10, No Iterations 1
DICPCG:  Solving for Uy, Initial residual = 0, Final residual = 0, No Iterations 0
smoothSolver:  Solving for epsilon, Initial residual = 0.000165982, Final residual = 4.63968e-07, No Iterations 5
smoothSolver:  Solving for k, Initial residual = 0.000516656, Final residual = 6.34779e-07, No Iterations 6
Uncorrected Ubar = 10, pressure gradient = 120.189
Rey = 0.0234746, uTau = 2.45143, nut+ = 0, nuEff+ = 1, y+ = 0.153214, u+ = 0.153214, k+ = 5.96574e-13, epsilon+ = 5.07933e-11, omega+ = 946.02
ExecutionTime = 1.05242 s  ClockTime = 1 s

Time = 993s

DICPCG:  Solving for Ux, Initial residual = 5.56986e-06, Final residual = 9.65061e-10, No Iterations 1
DICPCG:  Solving for Uy, Initial residual = 0, Final residual = 0, No Iterations 0
smoothSolver:  Solving for epsilon, Initial residual = 0.000166032, Final residual = 4.64091e-07, No Iterations 5
smoothSolver:  Solving for k, Initial residual = 0.000516815, Final residual = 6.34973e-07, No Iterations 6
Uncorrected Ubar = 10, pressure gradient = 120.187
Rey = 0.0234743, uTau = 2.45141, nut+ = 0, nuEff+ = 1, y+ = 0.153213, u+ = 0.153213, k+ = 5.96978e-13, epsilon+ = 5.08283e-11, omega+ = 946.03
ExecutionTime = 1.05326 s  ClockTime = 1 s

Time = 994s

DICPCG:  Solving for Ux, Initial residual = 5.53691e-06, Final residual = 9.59252e-10, No Iterations 1
DICPCG:  Solving for Uy, Initial residual = 0, Final residual = 0, No Iterations 0
smoothSolver:  Solving for epsilon, Initial residual = 0.000166082, Final residual = 4.64214e-07, No Iterations 5
smoothSolver:  Solving for k, Initial residual = 0.000516973, Final residual = 6.35166e-07, No Iterations 6
Uncorrected Ubar = 10, pressure gradient = 120.186
Rey = 0.0234741, uTau = 2.4514, nut+ = 0, nuEff+ = 1, y+ = 0.153212, u+ = 0.153212, k+ = 5.97383e-13, epsilon+ = 5.08633e-11, omega+ = 946.04
ExecutionTime = 1.05419 s  ClockTime = 1 s

Time = 995s

DICPCG:  Solving for Ux, Initial residual = 5.50428e-06, Final residual = 9.53696e-10, No Iterations 1
DICPCG:  Solving for Uy, Initial residual = 0, Final residual = 0, No Iterations 0
smoothSolver:  Solving for epsilon, Initial residual = 0.000166131, Final residual = 4.64335e-07, No Iterations 5
smoothSolver:  Solving for k, Initial residual = 0.000517131, Final residual = 6.35358e-07, No Iterations 6
Uncorrected Ubar = 10, pressure gradient = 120.185
Rey = 0.0234738, uTau = 2.45139, nut+ = 0, nuEff+ = 1, y+ = 0.153212, u+ = 0.153212, k+ = 5.97788e-13, epsilon+ = 5.08984e-11, omega+ = 946.05
ExecutionTime = 1.05532 s  ClockTime = 1 s

Time = 996s

DICPCG:  Solving for Ux, Initial residual = 5.47172e-06, Final residual = 9.47959e-10, No Iterations 1
DICPCG:  Solving for Uy, Initial residual = 0, Final residual = 0, No Iterations 0
smoothSolver:  Solving for epsilon, Initial residual = 0.000166181, Final residual = 4.64456e-07, No Iterations 5
smoothSolver:  Solving for k, Initial residual = 0.000517287, Final residual = 6.35549e-07, No Iterations 6
Uncorrected Ubar = 10, pressure gradient = 120.183
Rey = 0.0234735, uTau = 2.45137, nut+ = 0, nuEff+ = 1, y+ = 0.153211, u+ = 0.153211, k+ = 5.98194e-13, epsilon+ = 5.09335e-11, omega+ = 946.06
ExecutionTime = 1.05637 s  ClockTime = 1 s

Time = 997s

DICPCG:  Solving for Ux, Initial residual = 5.43947e-06, Final residual = 9.42465e-10, No Iterations 1
DICPCG:  Solving for Uy, Initial residual = 0, Final residual = 0, No Iterations 0
smoothSolver:  Solving for epsilon, Initial residual = 0.00016623, Final residual = 4.64577e-07, No Iterations 5
smoothSolver:  Solving for k, Initial residual = 0.000517443, Final residual = 6.35739e-07, No Iterations 6
Uncorrected Ubar = 10, pressure gradient = 120.182
Rey = 0.0234733, uTau = 2.45136, nut+ = 0, nuEff+ = 1, y+ = 0.15321, u+ = 0.15321, k+ = 5.986e-13, epsilon+ = 5.09686e-11, omega+ = 946.071
ExecutionTime = 1.05733 s  ClockTime = 1 s

Time = 998s

DICPCG:  Solving for Ux, Initial residual = 5.4073e-06, Final residual = 9.36799e-10, No Iterations 1
DICPCG:  Solving for Uy, Initial residual = 0, Final residual = 0, No Iterations 0
smoothSolver:  Solving for epsilon, Initial residual = 0.000166278, Final residual = 4.64697e-07, No Iterations 5
smoothSolver:  Solving for k, Initial residual = 0.000517597, Final residual = 6.35927e-07, No Iterations 6
Uncorrected Ubar = 10, pressure gradient = 120.181
Rey = 0.023473, uTau = 2.45135, nut+ = 0, nuEff+ = 1, y+ = 0.153209, u+ = 0.153209, k+ = 5.99006e-13, epsilon+ = 5.10037e-11, omega+ = 946.081
ExecutionTime = 1.05818 s  ClockTime = 1 s

Time = 999s

DICPCG:  Solving for Ux, Initial residual = 5.37543e-06, Final residual = 9.31366e-10, No Iterations 1
DICPCG:  Solving for Uy, Initial residual = 0, Final residual = 0, No Iterations 0
smoothSolver:  Solving for epsilon, Initial residual = 0.000166327, Final residual = 4.64816e-07, No Iterations 5
smoothSolver:  Solving for k, Initial residual = 0.000517751, Final residual = 6.36115e-07, No Iterations 6
Uncorrected Ubar = 10, pressure gradient = 120.18
Rey = 0.0234728, uTau = 2.45133, nut+ = 0, nuEff+ = 1, y+ = 0.153208, u+ = 0.153208, k+ = 5.99413e-13, epsilon+ = 5.10389e-11, omega+ = 946.09
ExecutionTime = 1.05967 s  ClockTime = 1 s

Time = 1000s

DICPCG:  Solving for Ux, Initial residual = 5.34364e-06, Final residual = 9.25771e-10, No Iterations 1
DICPCG:  Solving for Uy, Initial residual = 0, Final residual = 0, No Iterations 0
smoothSolver:  Solving for epsilon, Initial residual = 0.000166375, Final residual = 4.64934e-07, No Iterations 5
smoothSolver:  Solving for k, Initial residual = 0.000517904, Final residual = 6.36301e-07, No Iterations 6
Uncorrected Ubar = 10, pressure gradient = 120.178
Rey = 0.0234725, uTau = 2.45132, nut+ = 0, nuEff+ = 1, y+ = 0.153207, u+ = 0.153207, k+ = 5.9982e-13, epsilon+ = 5.10741e-11, omega+ = 946.1
ExecutionTime = 1.08035 s  ClockTime = 1 s

End

