/*---------------------------------------------------------------------------*\
  =========                 |
  \\      /  F ield         | OpenFOAM: The Open Source CFD Toolbox
   \\    /   O peration     | Website:  https://openfoam.org
    \\  /    A nd           | Version:  12
     \\/     M anipulation  |
\*---------------------------------------------------------------------------*/
Build  : 12-cc05c1b03c38
Exec   : boundaryFoam
Date   : Oct 10 2024
Time   : 23:10:43
Host   : "DESKTOP-KBPC6IC"
PID    : 29253
I/O    : uncollated
Case   : /home/as/openfoam/OpenFOAM-12/test/boundaryLayer/boundaryWallFunctionsProfile
nProcs : 1
sigFpe : Enabling floating point exception trapping (FOAM_SIGFPE).
fileModificationChecking : Monitoring run-time modified files using timeStampMaster (fileModificationSkew 10)
allowSystemOperations : Allowing user-supplied system call operations

// * * * * * * * * * * * * * * * * * * * * * * * * * * * * * * * * * * * * * //
Create time

Create mesh for time = 0

Reading field U

Creating face flux

Selecting viscosity model constant
Selecting turbulence model type RAS
Selecting RAS turbulence model kEpsilon
RAS
{
    model           kEpsilon;
    turbulence      on;
    printCoeffs     on;
    Cmu             0.09;
    C1              1.44;
    C2              1.92;
    C3              0;
    sigmak          1;
    sigmaEps        1.3;
}

No fvModels present
No fvConstraints present
Generating wall data for patch: lowerWall
    Height to first cell centre y0 = 0.000625

Starting time loop

Time = 1s

DICPCG:  Solving for Ux, Initial residual = 1, Final residual = 1.09446e-08, No Iterations 4
DICPCG:  Solving for Uy, Initial residual = 0, Final residual = 0, No Iterations 0
smoothSolver:  Solving for epsilon, Initial residual = 0.381724, Final residual = 7.63139e-08, No Iterations 5
smoothSolver:  Solving for k, Initial residual = 0.999999, Final residual = 3.21559e-07, No Iterations 8
Uncorrected Ubar = 0.988503, pressure gradient = 247.09
Rey = 604.411, uTau = 0.393356, nut+ = 0, nuEff+ = 1, y+ = 24.5848, u+ = 24.5848, k+ = 2.87413e-09, epsilon+ = 2.13858e-11, omega+ = 0.0826755
ExecutionTime = 0.007281 s  ClockTime = 0 s

Time = 2s

DICPCG:  Solving for Ux, Initial residual = 0.998752, Final residual = 1.35077e-07, No Iterations 3
DICPCG:  Solving for Uy, Initial residual = 0, Final residual = 0, No Iterations 0
smoothSolver:  Solving for epsilon, Initial residual = 0.996529, Final residual = 2.78725e-07, No Iterations 4
smoothSolver:  Solving for k, Initial residual = 0.404135, Final residual = 5.62996e-07, No Iterations 4
Uncorrected Ubar = 27.7426, pressure gradient = -239.402
Rey = 153.598, uTau = 0.198295, nut+ = 0, nuEff+ = 1, y+ = 12.3934, u+ = 12.3934, k+ = 1.02864e-08, epsilon+ = 1.47265e-10, omega+ = 0.159072
ExecutionTime = 0.008321 s  ClockTime = 0 s

Time = 3s

DICPCG:  Solving for Ux, Initial residual = 0.910439, Final residual = 1.4179e-07, No Iterations 3
DICPCG:  Solving for Uy, Initial residual = 0, Final residual = 0, No Iterations 0
smoothSolver:  Solving for epsilon, Initial residual = 0.576989, Final residual = 2.38175e-09, No Iterations 2
smoothSolver:  Solving for k, Initial residual = 0.721871, Final residual = 6.52424e-07, No Iterations 5
Uncorrected Ubar = -7.31679, pressure gradient = 235.413
Rey = 524.071, uTau = 0.366282, nut+ = 0, nuEff+ = 1, y+ = 22.8926, u+ = 22.8926, k+ = 1.51688e-09, epsilon+ = 1.15053e-11, omega+ = 0.0842759
ExecutionTime = 0.009475 s  ClockTime = 0 s

Time = 4s

DICPCG:  Solving for Ux, Initial residual = 0.984613, Final residual = 1.32824e-07, No Iterations 3
DICPCG:  Solving for Uy, Initial residual = 0, Final residual = 0, No Iterations 0
smoothSolver:  Solving for epsilon, Initial residual = 0.571834, Final residual = 4.62464e-09, No Iterations 2
smoothSolver:  Solving for k, Initial residual = 0.816669, Final residual = 5.04386e-07, No Iterations 6
Uncorrected Ubar = 26.9162, pressure gradient = -228.419
Rey = 185.619, uTau = 0.217987, nut+ = 0, nuEff+ = 1, y+ = 13.6242, u+ = 13.6242, k+ = 1.84171e-09, epsilon+ = 4.61452e-11, omega+ = 0.278395
ExecutionTime = 0.01034 s  ClockTime = 0 s

Time = 5s

DICPCG:  Solving for Ux, Initial residual = 0.898475, Final residual = 1.3768e-07, No Iterations 3
DICPCG:  Solving for Uy, Initial residual = 0, Final residual = 0, No Iterations 0
smoothSolver:  Solving for epsilon, Initial residual = 0.577579, Final residual = 9.55601e-09, No Iterations 2
smoothSolver:  Solving for k, Initial residual = 0.487135, Final residual = 8.51506e-07, No Iterations 6
Uncorrected Ubar = -6.51343, pressure gradient = 224.37
Rey = 470.784, uTau = 0.347161, nut+ = 0, nuEff+ = 1, y+ = 21.6976, u+ = 21.6976, k+ = 2.84412e-10, epsilon+ = 3.08483e-12, omega+ = 0.120515
ExecutionTime = 0.011335 s  ClockTime = 1 s

Time = 6s

DICPCG:  Solving for Ux, Initial residual = 0.973089, Final residual = 1.34371e-07, No Iterations 3
DICPCG:  Solving for Uy, Initial residual = 0, Final residual = 0, No Iterations 0
smoothSolver:  Solving for epsilon, Initial residual = 0.572697, Final residual = 2.02198e-08, No Iterations 2
smoothSolver:  Solving for k, Initial residual = 0.160903, Final residual = 7.87046e-07, No Iterations 6
Uncorrected Ubar = 26.1291, pressure gradient = -217.881
Rey = 198.383, uTau = 0.225357, nut+ = 0, nuEff+ = 1, y+ = 14.0848, u+ = 14.0848, k+ = 2.53269e-10, epsilon+ = 6.80443e-12, omega+ = 0.298516
ExecutionTime = 0.012167 s  ClockTime = 1 s

Time = 7s

DICPCG:  Solving for Ux, Initial residual = 0.887109, Final residual = 1.336e-07, No Iterations 3
DICPCG:  Solving for Uy, Initial residual = 0, Final residual = 0, No Iterations 0
smoothSolver:  Solving for epsilon, Initial residual = 0.579095, Final residual = 5.93212e-08, No Iterations 2
smoothSolver:  Solving for k, Initial residual = 0.0554536, Final residual = 6.93105e-07, No Iterations 6
Uncorrected Ubar = -5.74674, pressure gradient = 213.885
Rey = 432.978, uTau = 0.33293, nut+ = 0, nuEff+ = 1, y+ = 20.8081, u+ = 20.8081, k+ = 4.18684e-11, epsilon+ = 5.36023e-13, omega+ = 0.142251
ExecutionTime = 0.013058 s  ClockTime = 1 s

Time = 8s

DICPCG:  Solving for Ux, Initial residual = 0.962749, Final residual = 1.35037e-07, No Iterations 3
DICPCG:  Solving for Uy, Initial residual = 0, Final residual = 0, No Iterations 0
smoothSolver:  Solving for epsilon, Initial residual = 0.57745, Final residual = 1.66575e-07, No Iterations 2
smoothSolver:  Solving for k, Initial residual = 0.0222873, Final residual = 6.19676e-07, No Iterations 6
Uncorrected Ubar = 25.3791, pressure gradient = -207.801
Rey = 201.141, uTau = 0.226919, nut+ = 0, nuEff+ = 1, y+ = 14.1824, u+ = 14.1824, k+ = 3.19115e-11, epsilon+ = 8.96152e-13, omega+ = 0.312027
ExecutionTime = 0.013912 s  ClockTime = 1 s

Time = 9s

DICPCG:  Solving for Ux, Initial residual = 0.87695, Final residual = 1.30647e-07, No Iterations 3
DICPCG:  Solving for Uy, Initial residual = 0, Final residual = 0, No Iterations 0
smoothSolver:  Solving for epsilon, Initial residual = 0.599043, Final residual = 4.83901e-07, No Iterations 2
smoothSolver:  Solving for k, Initial residual = 0.0147478, Final residual = 5.76524e-07, No Iterations 6
Uncorrected Ubar = -5.01536, pressure gradient = 203.911
Rey = 403.762, uTau = 0.321501, nut+ = 0, nuEff+ = 1, y+ = 20.0938, u+ = 20.0938, k+ = 5.50541e-12, epsilon+ = 7.87456e-14, omega+ = 0.158926
ExecutionTime = 0.014815 s  ClockTime = 1 s

Time = 10s

DICPCG:  Solving for Ux, Initial residual = 0.953193, Final residual = 1.34895e-07, No Iterations 3
DICPCG:  Solving for Uy, Initial residual = 0, Final residual = 0, No Iterations 0
smoothSolver:  Solving for epsilon, Initial residual = 0.64622, Final residual = 1.75666e-07, No Iterations 3
smoothSolver:  Solving for k, Initial residual = 0.0158567, Final residual = 4.99825e-07, No Iterations 6
Uncorrected Ubar = 24.6641, pressure gradient = -198.17
Rey = 198.759, uTau = 0.225571, nut+ = 0, nuEff+ = 1, y+ = 14.0982, u+ = 14.0982, k+ = 3.83429e-12, epsilon+ = 1.12536e-13, omega+ = 0.32611
ExecutionTime = 0.015797 s  ClockTime = 1 s

Time = 11s

DICPCG:  Solving for Ux, Initial residual = 0.867278, Final residual = 1.28379e-07, No Iterations 3
DICPCG:  Solving for Uy, Initial residual = 0, Final residual = 0, No Iterations 0
smoothSolver:  Solving for epsilon, Initial residual = 0.585993, Final residual = 4.03725e-07, No Iterations 3
smoothSolver:  Solving for k, Initial residual = 0.0218152, Final residual = 4.46491e-07, No Iterations 6
Uncorrected Ubar = -4.31781, pressure gradient = 194.415
Rey = 379.635, uTau = 0.311748, nut+ = 0, nuEff+ = 1, y+ = 19.4842, u+ = 19.4842, k+ = 6.78322e-13, epsilon+ = 1.05757e-14, omega+ = 0.173233
ExecutionTime = 0.01681 s  ClockTime = 1 s

Time = 12s

DICPCG:  Solving for Ux, Initial residual = 0.941102, Final residual = 1.33881e-07, No Iterations 3
DICPCG:  Solving for Uy, Initial residual = 0, Final residual = 0, No Iterations 0
smoothSolver:  Solving for epsilon, Initial residual = 0.145099, Final residual = 2.18134e-07, No Iterations 3
smoothSolver:  Solving for k, Initial residual = 0.0286914, Final residual = 3.452e-07, No Iterations 6
Uncorrected Ubar = 23.9825, pressure gradient = -188.977
Rey = 193.665, uTau = 0.222662, nut+ = 0, nuEff+ = 1, y+ = 13.9164, u+ = 13.9164, k+ = 4.46635e-13, epsilon+ = 1.37319e-14, omega+ = 0.341612
ExecutionTime = 0.017643 s  ClockTime = 1 s

Time = 13s

DICPCG:  Solving for Ux, Initial residual = 0.858012, Final residual = 1.26509e-07, No Iterations 3
DICPCG:  Solving for Uy, Initial residual = 0, Final residual = 0, No Iterations 0
smoothSolver:  Solving for epsilon, Initial residual = 0.0493978, Final residual = 1.05914e-07, No Iterations 3
smoothSolver:  Solving for k, Initial residual = 0.0378441, Final residual = 9.41259e-07, No Iterations 5
Uncorrected Ubar = -3.65259, pressure gradient = 185.368
Rey = 358.798, uTau = 0.303071, nut+ = 0, nuEff+ = 1, y+ = 18.942, u+ = 18.942, k+ = 8.01395e-14, epsilon+ = 1.3438e-15, omega+ = 0.186314
ExecutionTime = 0.018452 s  ClockTime = 1 s

Time = 14s

DICPCG:  Solving for Ux, Initial residual = 0.928366, Final residual = 1.32498e-07, No Iterations 3
DICPCG:  Solving for Uy, Initial residual = 0, Final residual = 0, No Iterations 0
smoothSolver:  Solving for epsilon, Initial residual = 0.0396876, Final residual = 6.53445e-08, No Iterations 3
smoothSolver:  Solving for k, Initial residual = 0.0489528, Final residual = 7.21413e-07, No Iterations 5
Uncorrected Ubar = 23.3326, pressure gradient = -180.205
Rey = 187.114, uTau = 0.218863, nut+ = 0, nuEff+ = 1, y+ = 13.679, u+ = 13.679, k+ = 5.09022e-14, epsilon+ = 1.64254e-15, omega+ = 0.358539
ExecutionTime = 0.019256 s  ClockTime = 1 s

Time = 15s

DICPCG:  Solving for Ux, Initial residual = 0.848695, Final residual = 1.24816e-07, No Iterations 3
DICPCG:  Solving for Uy, Initial residual = 0, Final residual = 0, No Iterations 0
smoothSolver:  Solving for epsilon, Initial residual = 0.0439421, Final residual = 4.62474e-08, No Iterations 3
smoothSolver:  Solving for k, Initial residual = 0.0635208, Final residual = 5.7725e-07, No Iterations 5
Uncorrected Ubar = -3.01824, pressure gradient = 176.747
Rey = 340.273, uTau = 0.295144, nut+ = 0, nuEff+ = 1, y+ = 18.4465, u+ = 18.4465, k+ = 9.21792e-15, epsilon+ = 1.6452e-16, omega+ = 0.198309
ExecutionTime = 0.020059 s  ClockTime = 1 s

Time = 16s

DICPCG:  Solving for Ux, Initial residual = 0.915577, Final residual = 1.30955e-07, No Iterations 3
DICPCG:  Solving for Uy, Initial residual = 0, Final residual = 0, No Iterations 0
smoothSolver:  Solving for epsilon, Initial residual = 0.0494704, Final residual = 3.07681e-08, No Iterations 3
smoothSolver:  Solving for k, Initial residual = 0.0619877, Final residual = 3.44522e-07, No Iterations 5
Uncorrected Ubar = 22.713, pressure gradient = -171.835
Rey = 179.788, uTau = 0.214536, nut+ = 0, nuEff+ = 1, y+ = 13.4085, u+ = 13.4085, k+ = 5.79044e-15, epsilon+ = 1.94076e-16, omega+ = 0.372406
ExecutionTime = 0.021138 s  ClockTime = 1 s

Time = 17s

DICPCG:  Solving for Ux, Initial residual = 0.83957, Final residual = 1.23258e-07, No Iterations 3
DICPCG:  Solving for Uy, Initial residual = 0, Final residual = 0, No Iterations 0
smoothSolver:  Solving for epsilon, Initial residual = 0.051115, Final residual = 2.0556e-08, No Iterations 3
smoothSolver:  Solving for k, Initial residual = 0.081546, Final residual = 9.57587e-07, No Iterations 4
bounding k, min: 9.5236e-17 max: 4.49435e-09 average: 3.50988e-10
Uncorrected Ubar = -2.41333, pressure gradient = 168.531
Rey = 323.487, uTau = 0.287772, nut+ = 0, nuEff+ = 1, y+ = 17.9857, u+ = 17.9857, k+ = 2.68129e-15, epsilon+ = 1.9897e-17, omega+ = 0.0824521
ExecutionTime = 0.022698 s  ClockTime = 1 s

Time = 18s

DICPCG:  Solving for Ux, Initial residual = 0.902883, Final residual = 1.29337e-07, No Iterations 3
DICPCG:  Solving for Uy, Initial residual = 0, Final residual = 0, No Iterations 0
smoothSolver:  Solving for epsilon, Initial residual = 0.0943652, Final residual = 2.44127e-08, No Iterations 3
smoothSolver:  Solving for k, Initial residual = 0.0931745, Final residual = 6.84253e-07, No Iterations 4
bounding k, min: 9.76375e-17 max: 6.03182e-09 average: 4.5076e-10
Uncorrected Ubar = 22.1222, pressure gradient = -163.852
Rey = 172.079, uTau = 0.209886, nut+ = 0, nuEff+ = 1, y+ = 13.1179, u+ = 13.1179, k+ = 5.04049e-15, epsilon+ = 5.85835e-17, omega+ = 0.12914
ExecutionTime = 0.024087 s  ClockTime = 1 s

Time = 19s

DICPCG:  Solving for Ux, Initial residual = 0.830289, Final residual = 1.2174e-07, No Iterations 3
DICPCG:  Solving for Uy, Initial residual = 0, Final residual = 0, No Iterations 0
smoothSolver:  Solving for epsilon, Initial residual = 0.128007, Final residual = 2.34028e-08, No Iterations 3
smoothSolver:  Solving for k, Initial residual = 0.123326, Final residual = 5.8381e-07, No Iterations 4
bounding k, min: 2.05311e-16 max: 8.07362e-09 average: 5.84248e-10
Uncorrected Ubar = -1.83652, pressure gradient = 160.698
Rey = 308.082, uTau = 0.280836, nut+ = 0, nuEff+ = 1, y+ = 17.5523, u+ = 17.5523, k+ = 2.81536e-15, epsilon+ = 1.82767e-17, omega+ = 0.0721309
ExecutionTime = 0.025421 s  ClockTime = 1 s

Time = 20s

DICPCG:  Solving for Ux, Initial residual = 0.89026, Final residual = 1.27673e-07, No Iterations 3
DICPCG:  Solving for Uy, Initial residual = 0, Final residual = 0, No Iterations 0
smoothSolver:  Solving for epsilon, Initial residual = 0.164068, Final residual = 2.11778e-08, No Iterations 3
smoothSolver:  Solving for k, Initial residual = 0.0651084, Final residual = 6.8307e-07, No Iterations 3
Uncorrected Ubar = 21.5588, pressure gradient = -156.237
Rey = 164.224, uTau = 0.20504, nut+ = 0, nuEff+ = 1, y+ = 12.815, u+ = 12.815, k+ = 5.94363e-15, epsilon+ = 6.43214e-17, omega+ = 0.120243
ExecutionTime = 0.026265 s  ClockTime = 1 s

Time = 21s

DICPCG:  Solving for Ux, Initial residual = 0.820832, Final residual = 1.20238e-07, No Iterations 3
DICPCG:  Solving for Uy, Initial residual = 0, Final residual = 0, No Iterations 0
smoothSolver:  Solving for epsilon, Initial residual = 0.081621, Final residual = 8.09542e-09, No Iterations 3
smoothSolver:  Solving for k, Initial residual = 0.113282, Final residual = 7.87808e-07, No Iterations 3
Uncorrected Ubar = -1.28651, pressure gradient = 153.232
Rey = 293.819, uTau = 0.274258, nut+ = 0, nuEff+ = 1, y+ = 17.1411, u+ = 17.1411, k+ = 3.65754e-15, epsilon+ = 2.26131e-17, omega+ = 0.0686954
ExecutionTime = 0.027069 s  ClockTime = 1 s

Time = 22s

DICPCG:  Solving for Ux, Initial residual = 0.877489, Final residual = 1.25951e-07, No Iterations 3
DICPCG:  Solving for Uy, Initial residual = 0, Final residual = 0, No Iterations 0
smoothSolver:  Solving for epsilon, Initial residual = 0.131824, Final residual = 1.00218e-08, No Iterations 3
smoothSolver:  Solving for k, Initial residual = 0.111479, Final residual = 5.10555e-07, No Iterations 3
Uncorrected Ubar = 21.0216, pressure gradient = -148.975
Rey = 156.371, uTau = 0.200078, nut+ = 0, nuEff+ = 1, y+ = 12.5049, u+ = 12.5049, k+ = 1.29608e-14, epsilon+ = 8.78992e-17, omega+ = 0.0753547
ExecutionTime = 0.027873 s  ClockTime = 1 s

Time = 23s

DICPCG:  Solving for Ux, Initial residual = 0.811346, Final residual = 1.18758e-07, No Iterations 3
DICPCG:  Solving for Uy, Initial residual = 0, Final residual = 0, No Iterations 0
smoothSolver:  Solving for epsilon, Initial residual = 0.135139, Final residual = 8.47282e-09, No Iterations 3
smoothSolver:  Solving for k, Initial residual = 0.132364, Final residual = 4.12117e-07, No Iterations 3
Uncorrected Ubar = -0.762042, pressure gradient = 146.114
Rey = 280.53, uTau = 0.267985, nut+ = 0, nuEff+ = 1, y+ = 16.749, u+ = 16.749, k+ = 2.14377e-14, epsilon+ = 5.15061e-17, omega+ = 0.0266955
ExecutionTime = 0.028732 s  ClockTime = 1 s

Time = 24s

DICPCG:  Solving for Ux, Initial residual = 0.864492, Final residual = 1.24173e-07, No Iterations 3
DICPCG:  Solving for Uy, Initial residual = 0, Final residual = 0, No Iterations 0
smoothSolver:  Solving for epsilon, Initial residual = 0.156169, Final residual = 8.00834e-09, No Iterations 3
smoothSolver:  Solving for k, Initial residual = 0.0850506, Final residual = 1.79006e-07, No Iterations 3
Uncorrected Ubar = 20.5094, pressure gradient = -142.049
Rey = 148.615, uTau = 0.195052, nut+ = 0, nuEff+ = 1, y+ = 12.1908, u+ = 12.1908, k+ = 6.43352e-14, epsilon+ = 5.44585e-16, omega+ = 0.0940533
ExecutionTime = 0.029541 s  ClockTime = 1 s

Time = 25s

DICPCG:  Solving for Ux, Initial residual = 0.801798, Final residual = 1.17288e-07, No Iterations 3
DICPCG:  Solving for Uy, Initial residual = 0, Final residual = 0, No Iterations 0
smoothSolver:  Solving for epsilon, Initial residual = 0.09865, Final residual = 9.56494e-07, No Iterations 2
smoothSolver:  Solving for k, Initial residual = 0.126417, Final residual = 1.85928e-07, No Iterations 3
Uncorrected Ubar = -0.261943, pressure gradient = 139.327
Rey = 268.093, uTau = 0.261977, nut+ = 0, nuEff+ = 1, y+ = 16.3735, u+ = 16.3735, k+ = 4.13193e-14, epsilon+ = 2.66054e-16, omega+ = 0.0715441
ExecutionTime = 0.030346 s  ClockTime = 1 s

Time = 26s

DICPCG:  Solving for Ux, Initial residual = 0.851419, Final residual = 1.22365e-07, No Iterations 3
DICPCG:  Solving for Uy, Initial residual = 0, Final residual = 0, No Iterations 0
smoothSolver:  Solving for epsilon, Initial residual = 0.13728, Final residual = 5.26592e-09, No Iterations 3
smoothSolver:  Solving for k, Initial residual = 0.119471, Final residual = 1.22453e-07, No Iterations 3
Uncorrected Ubar = 20.0211, pressure gradient = -135.444
Rey = 141.015, uTau = 0.19, nut+ = 0, nuEff+ = 1, y+ = 11.875, u+ = 11.875, k+ = 1.34843e-13, epsilon+ = 1.11414e-15, omega+ = 0.0918051
ExecutionTime = 0.031311 s  ClockTime = 1 s

Time = 27s

DICPCG:  Solving for Ux, Initial residual = 0.791805, Final residual = 1.15767e-07, No Iterations 3
DICPCG:  Solving for Uy, Initial residual = 0, Final residual = 0, No Iterations 0
smoothSolver:  Solving for epsilon, Initial residual = 0.133892, Final residual = 4.6377e-09, No Iterations 3
smoothSolver:  Solving for k, Initial residual = 0.137107, Final residual = 1.01129e-07, No Iterations 3
Uncorrected Ubar = 0.214921, pressure gradient = 132.857
Rey = 256.411, uTau = 0.256205, nut+ = 0, nuEff+ = 1, y+ = 16.0128, u+ = 16.0128, k+ = 1.87339e-13, epsilon+ = 5.7843e-16, omega+ = 0.0343069
ExecutionTime = 0.032492 s  ClockTime = 1 s

Time = 28s

DICPCG:  Solving for Ux, Initial residual = 0.838254, Final residual = 1.20531e-07, No Iterations 3
DICPCG:  Solving for Uy, Initial residual = 0, Final residual = 0, No Iterations 0
smoothSolver:  Solving for epsilon, Initial residual = 0.152133, Final residual = 4.68331e-09, No Iterations 3
smoothSolver:  Solving for k, Initial residual = 0.0940469, Final residual = 5.00903e-08, No Iterations 3
Uncorrected Ubar = 19.5554, pressure gradient = -129.145
Rey = 133.612, uTau = 0.184945, nut+ = 0, nuEff+ = 1, y+ = 11.5591, u+ = 11.5591, k+ = 5.7928e-13, epsilon+ = 5.38148e-15, omega+ = 0.103222
ExecutionTime = 0.03355 s  ClockTime = 1 s

Time = 29s

DICPCG:  Solving for Ux, Initial residual = 0.781681, Final residual = 1.14237e-07, No Iterations 3
DICPCG:  Solving for Uy, Initial residual = 0, Final residual = 0, No Iterations 0
smoothSolver:  Solving for epsilon, Initial residual = 0.104559, Final residual = 8.32244e-07, No Iterations 2
smoothSolver:  Solving for k, Initial residual = 0.131052, Final residual = 5.25015e-08, No Iterations 3
Uncorrected Ubar = 0.669629, pressure gradient = 126.688
Rey = 245.41, uTau = 0.250649, nut+ = 0, nuEff+ = 1, y+ = 15.6656, u+ = 15.6656, k+ = 3.33663e-13, epsilon+ = 2.57028e-15, omega+ = 0.0855915
ExecutionTime = 0.034386 s  ClockTime = 1 s

Time = 30s

DICPCG:  Solving for Ux, Initial residual = 0.824983, Final residual = 1.1867e-07, No Iterations 3
DICPCG:  Solving for Uy, Initial residual = 0, Final residual = 0, No Iterations 0
smoothSolver:  Solving for epsilon, Initial residual = 0.135887, Final residual = 3.54019e-09, No Iterations 3
smoothSolver:  Solving for k, Initial residual = 0.124746, Final residual = 3.77274e-08, No Iterations 3
Uncorrected Ubar = 19.1113, pressure gradient = -123.138
Rey = 126.431, uTau = 0.179907, nut+ = 0, nuEff+ = 1, y+ = 11.2442, u+ = 11.2442, k+ = 1.04786e-12, epsilon+ = 1.02452e-14, omega+ = 0.108636
ExecutionTime = 0.035236 s  ClockTime = 1 s

Time = 31s

DICPCG:  Solving for Ux, Initial residual = 0.771424, Final residual = 1.12697e-07, No Iterations 3
DICPCG:  Solving for Uy, Initial residual = 0, Final residual = 0, No Iterations 0
smoothSolver:  Solving for epsilon, Initial residual = 0.134168, Final residual = 9.94844e-07, No Iterations 2
smoothSolver:  Solving for k, Initial residual = 0.139312, Final residual = 3.32466e-08, No Iterations 3
Uncorrected Ubar = 1.10321, pressure gradient = 120.806
Rey = 235.028, uTau = 0.24529, nut+ = 0, nuEff+ = 1, y+ = 15.3306, u+ = 15.3306, k+ = 1.27536e-12, epsilon+ = 4.79679e-15, omega+ = 0.0417902
ExecutionTime = 0.036038 s  ClockTime = 1 s

Time = 32s

DICPCG:  Solving for Ux, Initial residual = 0.811321, Final residual = 1.16745e-07, No Iterations 3
DICPCG:  Solving for Uy, Initial residual = 0, Final residual = 0, No Iterations 0
smoothSolver:  Solving for epsilon, Initial residual = 0.149549, Final residual = 3.4187e-09, No Iterations 3
smoothSolver:  Solving for k, Initial residual = 0.101355, Final residual = 1.92619e-08, No Iterations 3
Uncorrected Ubar = 18.6879, pressure gradient = -117.41
Rey = 119.488, uTau = 0.174897, nut+ = 0, nuEff+ = 1, y+ = 10.931, u+ = 10.931, k+ = 4.04578e-12, epsilon+ = 4.1989e-14, omega+ = 0.115316
ExecutionTime = 0.036836 s  ClockTime = 1 s

Time = 33s

DICPCG:  Solving for Ux, Initial residual = 0.761024, Final residual = 1.11142e-07, No Iterations 3
DICPCG:  Solving for Uy, Initial residual = 0, Final residual = 0, No Iterations 0
smoothSolver:  Solving for epsilon, Initial residual = 0.109442, Final residual = 7.64903e-07, No Iterations 2
smoothSolver:  Solving for k, Initial residual = 0.134058, Final residual = 2.11993e-08, No Iterations 3
Uncorrected Ubar = 1.51665, pressure gradient = 115.198
Rey = 225.214, uTau = 0.240114, nut+ = 0, nuEff+ = 1, y+ = 15.0071, u+ = 15.0071, k+ = 2.2302e-12, epsilon+ = 1.90618e-14, omega+ = 0.0949681
ExecutionTime = 0.038023 s  ClockTime = 1 s

Time = 34s

DICPCG:  Solving for Ux, Initial residual = 0.797512, Final residual = 1.14792e-07, No Iterations 3
DICPCG:  Solving for Uy, Initial residual = 0, Final residual = 0, No Iterations 0
smoothSolver:  Solving for epsilon, Initial residual = 0.13648, Final residual = 9.23321e-07, No Iterations 2
smoothSolver:  Solving for k, Initial residual = 0.12752, Final residual = 1.692e-08, No Iterations 3
Uncorrected Ubar = 18.2841, pressure gradient = -111.948
Rey = 112.79, uTau = 0.169924, nut+ = 0, nuEff+ = 1, y+ = 10.6203, u+ = 10.6203, k+ = 6.9889e-12, epsilon+ = 7.89637e-14, omega+ = 0.125538
ExecutionTime = 0.039119 s  ClockTime = 1 s

Time = 35s

DICPCG:  Solving for Ux, Initial residual = 0.750373, Final residual = 1.09556e-07, No Iterations 3
DICPCG:  Solving for Uy, Initial residual = 0, Final residual = 0, No Iterations 0
smoothSolver:  Solving for epsilon, Initial residual = 0.134066, Final residual = 8.93614e-07, No Iterations 2
smoothSolver:  Solving for k, Initial residual = 0.140146, Final residual = 1.62801e-08, No Iterations 3
Uncorrected Ubar = 1.91088, pressure gradient = 109.851
Rey = 215.925, uTau = 0.23511, nut+ = 0, nuEff+ = 1, y+ = 14.6944, u+ = 14.6944, k+ = 7.65517e-12, epsilon+ = 3.38145e-14, omega+ = 0.0490802
ExecutionTime = 0.040328 s  ClockTime = 1 s

Time = 36s

DICPCG:  Solving for Ux, Initial residual = 0.783573, Final residual = 1.12814e-07, No Iterations 3
DICPCG:  Solving for Uy, Initial residual = 0, Final residual = 0, No Iterations 0
smoothSolver:  Solving for epsilon, Initial residual = 0.147911, Final residual = 9.58533e-07, No Iterations 2
smoothSolver:  Solving for k, Initial residual = 0.106664, Final residual = 1.0885e-08, No Iterations 3
Uncorrected Ubar = 17.8992, pressure gradient = -106.74
Rey = 106.342, uTau = 0.164996, nut+ = 0, nuEff+ = 1, y+ = 10.3122, u+ = 10.3122, k+ = 2.50281e-11, epsilon+ = 2.92334e-13, omega+ = 0.12978
ExecutionTime = 0.041505 s  ClockTime = 1 s

Time = 37s

DICPCG:  Solving for Ux, Initial residual = 0.739363, Final residual = 1.07921e-07, No Iterations 3
DICPCG:  Solving for Uy, Initial residual = 0, Final residual = 0, No Iterations 0
smoothSolver:  Solving for epsilon, Initial residual = 0.113234, Final residual = 7.24705e-07, No Iterations 2
smoothSolver:  Solving for k, Initial residual = 0.135738, Final residual = 1.26247e-08, No Iterations 3
Uncorrected Ubar = 2.28679, pressure gradient = 104.753
Rey = 207.123, uTau = 0.230268, nut+ = 0, nuEff+ = 1, y+ = 14.3918, u+ = 14.3918, k+ = 1.33116e-11, epsilon+ = 1.24081e-13, omega+ = 0.103569
ExecutionTime = 0.042332 s  ClockTime = 1 s

Time = 38s

DICPCG:  Solving for Ux, Initial residual = 0.769508, Final residual = 1.10812e-07, No Iterations 3
DICPCG:  Solving for Uy, Initial residual = 0, Final residual = 0, No Iterations 0
smoothSolver:  Solving for epsilon, Initial residual = 0.137214, Final residual = 8.58116e-07, No Iterations 2
smoothSolver:  Solving for k, Initial residual = 0.129229, Final residual = 1.09406e-08, No Iterations 3
Uncorrected Ubar = 17.5321, pressure gradient = -101.773
Rey = 100.143, uTau = 0.160114, nut+ = 0, nuEff+ = 1, y+ = 10.0072, u+ = 10.0072, k+ = 4.24295e-11, epsilon+ = 5.49854e-13, omega+ = 0.143991
ExecutionTime = 0.043241 s  ClockTime = 1 s

Time = 39s

DICPCG:  Solving for Ux, Initial residual = 0.728187, Final residual = 1.06265e-07, No Iterations 3
DICPCG:  Solving for Uy, Initial residual = 0, Final residual = 0, No Iterations 0
smoothSolver:  Solving for epsilon, Initial residual = 0.134119, Final residual = 8.31192e-07, No Iterations 2
smoothSolver:  Solving for k, Initial residual = 0.140595, Final residual = 1.11852e-08, No Iterations 3
Uncorrected Ubar = 2.64526, pressure gradient = 99.8914
Rey = 198.774, uTau = 0.225579, nut+ = 0, nuEff+ = 1, y+ = 14.0987, u+ = 14.0987, k+ = 4.22256e-11, epsilon+ = 2.1508e-13, omega+ = 0.0565955
ExecutionTime = 0.044274 s  ClockTime = 1 s

Time = 40s

DICPCG:  Solving for Ux, Initial residual = 0.755321, Final residual = 1.08788e-07, No Iterations 3
DICPCG:  Solving for Uy, Initial residual = 0, Final residual = 0, No Iterations 0
smoothSolver:  Solving for epsilon, Initial residual = 0.146823, Final residual = 8.91876e-07, No Iterations 2
smoothSolver:  Solving for k, Initial residual = 0.111044, Final residual = 8.23756e-09, No Iterations 3
Uncorrected Ubar = 17.182, pressure gradient = -97.0367
Rey = 94.1915, uTau = 0.155284, nut+ = 0, nuEff+ = 1, y+ = 9.70523, u+ = 9.70523, k+ = 1.43074e-10, epsilon+ = 1.89209e-12, omega+ = 0.146939
ExecutionTime = 0.045095 s  ClockTime = 1 s

Time = 41s

DICPCG:  Solving for Ux, Initial residual = 0.716848, Final residual = 1.04587e-07, No Iterations 3
DICPCG:  Solving for Uy, Initial residual = 0, Final residual = 0, No Iterations 0
smoothSolver:  Solving for epsilon, Initial residual = 0.116514, Final residual = 7.01834e-07, No Iterations 2
smoothSolver:  Solving for k, Initial residual = 0.136987, Final residual = 9.74857e-09, No Iterations 3
Uncorrected Ubar = 2.98708, pressure gradient = 95.2562
Rey = 190.848, uTau = 0.221037, nut+ = 0, nuEff+ = 1, y+ = 13.8148, u+ = 13.8148, k+ = 7.37177e-11, epsilon+ = 7.3999e-13, omega+ = 0.111535
ExecutionTime = 0.046005 s  ClockTime = 1 s

Time = 42s

DICPCG:  Solving for Ux, Initial residual = 0.739586, Final residual = 1.06535e-07, No Iterations 3
DICPCG:  Solving for Uy, Initial residual = 0, Final residual = 0, No Iterations 0
smoothSolver:  Solving for epsilon, Initial residual = 0.138045, Final residual = 8.18616e-07, No Iterations 2
smoothSolver:  Solving for k, Initial residual = 0.130433, Final residual = 8.80157e-09, No Iterations 3
Uncorrected Ubar = 16.8482, pressure gradient = -92.5204
Rey = 88.4825, uTau = 0.150504, nut+ = 0, nuEff+ = 1, y+ = 9.40651, u+ = 9.40651, k+ = 2.42263e-10, epsilon+ = 3.59398e-12, omega+ = 0.164833
ExecutionTime = 0.046907 s  ClockTime = 1 s

Time = 43s

DICPCG:  Solving for Ux, Initial residual = 0.705346, Final residual = 1.02885e-07, No Iterations 3
DICPCG:  Solving for Uy, Initial residual = 0, Final residual = 0, No Iterations 0
smoothSolver:  Solving for epsilon, Initial residual = 0.134306, Final residual = 7.91469e-07, No Iterations 2
smoothSolver:  Solving for k, Initial residual = 0.140897, Final residual = 9.24931e-09, No Iterations 3
Uncorrected Ubar = 3.31305, pressure gradient = 90.8365
Rey = 183.32, uTau = 0.216633, nut+ = 0, nuEff+ = 1, y+ = 13.5396, u+ = 13.5396, k+ = 2.19461e-10, epsilon+ = 1.27573e-12, omega+ = 0.0645888
ExecutionTime = 0.047884 s  ClockTime = 1 s

Time = 44s

DICPCG:  Solving for Ux, Initial residual = 0.723412, Final residual = 1.04211e-07, No Iterations 3
DICPCG:  Solving for Uy, Initial residual = 0, Final residual = 0, No Iterations 0
smoothSolver:  Solving for epsilon, Initial residual = 0.146024, Final residual = 8.4952e-07, No Iterations 2
smoothSolver:  Solving for k, Initial residual = 0.114787, Final residual = 7.22166e-09, No Iterations 3
Uncorrected Ubar = 16.5298, pressure gradient = -88.2139
Rey = 83.0104, uTau = 0.145776, nut+ = 0, nuEff+ = 1, y+ = 9.111, u+ = 9.111, k+ = 7.75389e-10, epsilon+ = 1.1677e-11, omega+ = 0.167328
ExecutionTime = 0.048828 s  ClockTime = 1 s

Time = 45s

DICPCG:  Solving for Ux, Initial residual = 0.693683, Final residual = 1.01157e-07, No Iterations 3
DICPCG:  Solving for Uy, Initial residual = 0, Final residual = 0, No Iterations 0
smoothSolver:  Solving for epsilon, Initial residual = 0.119539, Final residual = 6.90334e-07, No Iterations 2
smoothSolver:  Solving for k, Initial residual = 0.13798, Final residual = 8.52696e-09, No Iterations 3
Uncorrected Ubar = 3.62393, pressure gradient = 86.6223
Rey = 176.163, uTau = 0.212362, nut+ = 0, nuEff+ = 1, y+ = 13.2726, u+ = 13.2726, k+ = 3.87119e-10, epsilon+ = 4.14815e-12, omega+ = 0.119061
ExecutionTime = 0.049636 s  ClockTime = 1 s

Time = 46s

DICPCG:  Solving for Ux, Initial residual = 0.707167, Final residual = 1.01869e-07, No Iterations 3
DICPCG:  Solving for Uy, Initial residual = 0, Final residual = 0, No Iterations 0
smoothSolver:  Solving for epsilon, Initial residual = 0.138803, Final residual = 7.95197e-07, No Iterations 2
smoothSolver:  Solving for k, Initial residual = 0.131286, Final residual = 7.83437e-09, No Iterations 3
Uncorrected Ubar = 16.2262, pressure gradient = -84.1074
Rey = 77.7678, uTau = 0.141098, nut+ = 0, nuEff+ = 1, y+ = 8.81861, u+ = 8.81861, k+ = 1.32616e-09, epsilon+ = 2.25521e-11, omega+ = 0.18895
ExecutionTime = 0.050434 s  ClockTime = 1 s

Time = 47s

DICPCG:  Solving for Ux, Initial residual = 0.681761, Final residual = 9.93852e-08, No Iterations 3
DICPCG:  Solving for Uy, Initial residual = 0, Final residual = 0, No Iterations 0
smoothSolver:  Solving for epsilon, Initial residual = 0.134688, Final residual = 7.66254e-07, No Iterations 2
smoothSolver:  Solving for k, Initial residual = 0.141127, Final residual = 8.33035e-09, No Iterations 3
Uncorrected Ubar = 3.92046, pressure gradient = 82.6039
Rey = 169.354, uTau = 0.208218, nut+ = 0, nuEff+ = 1, y+ = 13.0136, u+ = 13.0136, k+ = 1.09075e-09, epsilon+ = 7.19177e-12, omega+ = 0.0732599
ExecutionTime = 0.051271 s  ClockTime = 1 s

Time = 48s

DICPCG:  Solving for Ux, Initial residual = 0.689522, Final residual = 9.93111e-08, No Iterations 3
DICPCG:  Solving for Uy, Initial residual = 0, Final residual = 0, No Iterations 0
smoothSolver:  Solving for epsilon, Initial residual = 0.145219, Final residual = 8.22912e-07, No Iterations 2
smoothSolver:  Solving for k, Initial residual = 0.118045, Final residual = 6.76197e-09, No Iterations 3
Uncorrected Ubar = 15.9366, pressure gradient = -80.1915
Rey = 72.7463, uTau = 0.136466, nut+ = 0, nuEff+ = 1, y+ = 8.52914, u+ = 8.52914, k+ = 4.0457e-09, epsilon+ = 6.98122e-11, omega+ = 0.191732
ExecutionTime = 0.052127 s  ClockTime = 1 s

Time = 49s

DICPCG:  Solving for Ux, Initial residual = 0.669525, Final residual = 9.75552e-08, No Iterations 3
DICPCG:  Solving for Uy, Initial residual = 0, Final residual = 0, No Iterations 0
smoothSolver:  Solving for epsilon, Initial residual = 0.122526, Final residual = 6.86837e-07, No Iterations 2
smoothSolver:  Solving for k, Initial residual = 0.138826, Final residual = 7.91102e-09, No Iterations 3
Uncorrected Ubar = 4.20335, pressure gradient = 78.7722
Rey = 162.872, uTau = 0.204194, nut+ = 0, nuEff+ = 1, y+ = 12.7621, u+ = 12.7621, k+ = 1.9535e-09, epsilon+ = 2.21893e-11, omega+ = 0.126208
ExecutionTime = 0.053032 s  ClockTime = 1 s

Time = 50s

DICPCG:  Solving for Ux, Initial residual = 0.67195, Final residual = 9.67436e-08, No Iterations 3
DICPCG:  Solving for Uy, Initial residual = 0, Final residual = 0, No Iterations 0
smoothSolver:  Solving for epsilon, Initial residual = 0.139129, Final residual = 7.82755e-07, No Iterations 2
smoothSolver:  Solving for k, Initial residual = 0.131846, Final residual = 7.32026e-09, No Iterations 3
Uncorrected Ubar = 15.6602, pressure gradient = -76.4575
Rey = 67.9354, uTau = 0.131877, nut+ = 0, nuEff+ = 1, y+ = 8.24229, u+ = 8.24229, k+ = 7.04836e-09, epsilon+ = 1.37878e-10, omega+ = 0.217353
ExecutionTime = 0.053866 s  ClockTime = 1 s

Time = 51s

DICPCG:  Solving for Ux, Initial residual = 0.657123, Final residual = 9.56784e-08, No Iterations 3
DICPCG:  Solving for Uy, Initial residual = 0, Final residual = 0, No Iterations 0
smoothSolver:  Solving for epsilon, Initial residual = 0.135403, Final residual = 7.51112e-07, No Iterations 2
smoothSolver:  Solving for k, Initial residual = 0.141351, Final residual = 7.84743e-09, No Iterations 3
Uncorrected Ubar = 4.47336, pressure gradient = 75.1184
Rey = 156.693, uTau = 0.200284, nut+ = 0, nuEff+ = 1, y+ = 12.5177, u+ = 12.5177, k+ = 5.23443e-09, epsilon+ = 3.90044e-11, omega+ = 0.0827945
ExecutionTime = 0.055842 s  ClockTime = 1 s

Time = 52s

DICPCG:  Solving for Ux, Initial residual = 0.654471, Final residual = 9.41567e-08, No Iterations 3
DICPCG:  Solving for Uy, Initial residual = 0, Final residual = 0, No Iterations 0
smoothSolver:  Solving for epsilon, Initial residual = 0.143854, Final residual = 8.08034e-07, No Iterations 2
smoothSolver:  Solving for k, Initial residual = 0.12087, Final residual = 6.55705e-09, No Iterations 3
Uncorrected Ubar = 15.3964, pressure gradient = -72.8967
Rey = 63.3226, uTau = 0.127321, nut+ = 0, nuEff+ = 1, y+ = 7.95755, u+ = 7.95755, k+ = 2.05404e-08, epsilon+ = 4.09103e-10, omega+ = 0.2213
ExecutionTime = 0.056875 s  ClockTime = 1 s

Time = 53s

DICPCG:  Solving for Ux, Initial residual = 0.644544, Final residual = 9.37361e-08, No Iterations 3
DICPCG:  Solving for Uy, Initial residual = 0, Final residual = 0, No Iterations 0
smoothSolver:  Solving for epsilon, Initial residual = 0.125854, Final residual = 6.90296e-07, No Iterations 2
smoothSolver:  Solving for k, Initial residual = 0.139621, Final residual = 7.61599e-09, No Iterations 3
Uncorrected Ubar = 4.73125, pressure gradient = 71.6341
Rey = 150.795, uTau = 0.196478, nut+ = 0, nuEff+ = 1, y+ = 12.2799, u+ = 12.2799, k+ = 9.55712e-09, epsilon+ = 1.14399e-10, omega+ = 0.133
ExecutionTime = 0.057731 s  ClockTime = 1 s

Time = 54s

DICPCG:  Solving for Ux, Initial residual = 0.636575, Final residual = 9.14561e-08, No Iterations 3
DICPCG:  Solving for Uy, Initial residual = 0, Final residual = 0, No Iterations 0
smoothSolver:  Solving for epsilon, Initial residual = 0.138369, Final residual = 7.80754e-07, No Iterations 2
smoothSolver:  Solving for k, Initial residual = 0.132079, Final residual = 7.06125e-09, No Iterations 3
Uncorrected Ubar = 15.1442, pressure gradient = -69.501
Rey = 58.8915, uTau = 0.122785, nut+ = 0, nuEff+ = 1, y+ = 7.67408, u+ = 7.67408, k+ = 3.67276e-08, epsilon+ = 8.31074e-10, omega+ = 0.251423
ExecutionTime = 0.058585 s  ClockTime = 1 s

Time = 55s

DICPCG:  Solving for Ux, Initial residual = 0.631763, Final residual = 9.16956e-08, No Iterations 3
DICPCG:  Solving for Uy, Initial residual = 0, Final residual = 0, No Iterations 0
smoothSolver:  Solving for epsilon, Initial residual = 0.137074, Final residual = 7.46191e-07, No Iterations 2
smoothSolver:  Solving for k, Initial residual = 0.14166, Final residual = 7.66682e-09, No Iterations 3
Uncorrected Ubar = 4.97788, pressure gradient = 68.3113
Rey = 145.151, uTau = 0.192766, nut+ = 0, nuEff+ = 1, y+ = 12.0479, u+ = 12.0479, k+ = 2.44261e-08, epsilon+ = 2.0532e-10, omega+ = 0.0933974
ExecutionTime = 0.059452 s  ClockTime = 1 s

Time = 56s

DICPCG:  Solving for Ux, Initial residual = 0.618197, Final residual = 8.85974e-08, No Iterations 3
DICPCG:  Solving for Uy, Initial residual = 0, Final residual = 0, No Iterations 0
smoothSolver:  Solving for epsilon, Initial residual = 0.140827, Final residual = 8.06839e-07, No Iterations 2
smoothSolver:  Solving for k, Initial residual = 0.123173, Final residual = 6.55378e-09, No Iterations 3
Uncorrected Ubar = 14.9028, pressure gradient = -66.2625
Rey = 54.6197, uTau = 0.118248, nut+ = 0, nuEff+ = 1, y+ = 7.39051, u+ = 7.39051, k+ = 1.02408e-07, epsilon+ = 2.37688e-09, omega+ = 0.257887
ExecutionTime = 0.060299 s  ClockTime = 1 s

Time = 57s

DICPCG:  Solving for Ux, Initial residual = 0.618726, Final residual = 8.95007e-08, No Iterations 3
DICPCG:  Solving for Uy, Initial residual = 0, Final residual = 0, No Iterations 0
smoothSolver:  Solving for epsilon, Initial residual = 0.130441, Final residual = 7.0437e-07, No Iterations 2
smoothSolver:  Solving for k, Initial residual = 0.140502, Final residual = 7.6393e-09, No Iterations 3
Uncorrected Ubar = 5.21423, pressure gradient = 65.1418
Rey = 139.73, uTau = 0.189132, nut+ = 0, nuEff+ = 1, y+ = 11.8207, u+ = 11.8207, k+ = 4.5642e-08, epsilon+ = 5.72976e-10, omega+ = 0.139486
ExecutionTime = 0.061132 s  ClockTime = 1 s

Time = 58s

DICPCG:  Solving for Ux, Initial residual = 0.60005, Final residual = 8.56234e-08, No Iterations 3
DICPCG:  Solving for Uy, Initial residual = 0, Final residual = 0, No Iterations 0
smoothSolver:  Solving for epsilon, Initial residual = 0.134608, Final residual = 7.95527e-07, No Iterations 2
smoothSolver:  Solving for k, Initial residual = 0.131766, Final residual = 7.07818e-09, No Iterations 3
Uncorrected Ubar = 14.6711, pressure gradient = -63.1735
Rey = 50.4749, uTau = 0.113673, nut+ = 0, nuEff+ = 1, y+ = 7.10457, u+ = 7.10457, k+ = 1.89508e-07, epsilon+ = 5.00648e-09, omega+ = 0.293538
ExecutionTime = 0.062007 s  ClockTime = 1 s

Time = 59s

DICPCG:  Solving for Ux, Initial residual = 0.605331, Final residual = 8.70551e-08, No Iterations 3
DICPCG:  Solving for Uy, Initial residual = 0, Final residual = 0, No Iterations 0
smoothSolver:  Solving for epsilon, Initial residual = 0.140906, Final residual = 7.59499e-07, No Iterations 2
smoothSolver:  Solving for k, Initial residual = 0.142212, Final residual = 7.91256e-09, No Iterations 3
Uncorrected Ubar = 5.44157, pressure gradient = 62.1179
Rey = 134.489, uTau = 0.185551, nut+ = 0, nuEff+ = 1, y+ = 11.5969, u+ = 11.5969, k+ = 1.11558e-07, epsilon+ = 1.05769e-09, omega+ = 0.105346
ExecutionTime = 0.063158 s  ClockTime = 1 s

Time = 60s

DICPCG:  Solving for Ux, Initial residual = 0.582065, Final residual = 8.24248e-08, No Iterations 3
DICPCG:  Solving for Uy, Initial residual = 0, Final residual = 0, No Iterations 0
smoothSolver:  Solving for epsilon, Initial residual = 0.132694, Final residual = 8.3298e-07, No Iterations 2
smoothSolver:  Solving for k, Initial residual = 0.124558, Final residual = 6.90436e-09, No Iterations 3
Uncorrected Ubar = 14.4477, pressure gradient = -60.2261
Rey = 46.4091, uTau = 0.108999, nut+ = 0, nuEff+ = 1, y+ = 6.81243, u+ = 6.81243, k+ = 5.07278e-07, epsilon+ = 1.39319e-08, omega+ = 0.305155
ExecutionTime = 0.064162 s  ClockTime = 1 s

Time = 61s

DICPCG:  Solving for Ux, Initial residual = 0.591385, Final residual = 8.41954e-08, No Iterations 3
DICPCG:  Solving for Uy, Initial residual = 0, Final residual = 0, No Iterations 0
smoothSolver:  Solving for epsilon, Initial residual = 0.137673, Final residual = 7.46839e-07, No Iterations 2
smoothSolver:  Solving for k, Initial residual = 0.141674, Final residual = 8.296e-09, No Iterations 3
Uncorrected Ubar = 5.66157, pressure gradient = 59.2313
Rey = 129.374, uTau = 0.181988, nut+ = 0, nuEff+ = 1, y+ = 11.3743, u+ = 11.3743, k+ = 2.14285e-07, epsilon+ = 2.8131e-09, omega+ = 0.145865
ExecutionTime = 0.065115 s  ClockTime = 1 s

Time = 62s

DICPCG:  Solving for Ux, Initial residual = 0.563692, Final residual = 7.87586e-08, No Iterations 3
DICPCG:  Solving for Uy, Initial residual = 0, Final residual = 0, No Iterations 0
smoothSolver:  Solving for epsilon, Initial residual = 0.121805, Final residual = 8.55551e-07, No Iterations 2
smoothSolver:  Solving for k, Initial residual = 0.130192, Final residual = 7.73274e-09, No Iterations 3
Uncorrected Ubar = 14.2304, pressure gradient = -57.412
Rey = 42.3506, uTau = 0.104124, nut+ = 0, nuEff+ = 1, y+ = 6.50774, u+ = 6.50774, k+ = 9.83634e-07, epsilon+ = 3.09135e-08, omega+ = 0.349199
ExecutionTime = 0.065959 s  ClockTime = 1 s

Time = 63s

DICPCG:  Solving for Ux, Initial residual = 0.576374, Final residual = 8.06242e-08, No Iterations 3
DICPCG:  Solving for Uy, Initial residual = 0, Final residual = 0, No Iterations 0
smoothSolver:  Solving for epsilon, Initial residual = 0.147588, Final residual = 8.29237e-07, No Iterations 2
smoothSolver:  Solving for k, Initial residual = 0.143198, Final residual = 9.22295e-09, No Iterations 3
Uncorrected Ubar = 5.87644, pressure gradient = 56.4727
Rey = 124.313, uTau = 0.178393, nut+ = 0, nuEff+ = 1, y+ = 11.1496, u+ = 11.1496, k+ = 5.02763e-07, epsilon+ = 5.39126e-09, omega+ = 0.119147
ExecutionTime = 0.06679 s  ClockTime = 1 s

Time = 64s

DICPCG:  Solving for Ux, Initial residual = 0.545541, Final residual = 7.47131e-08, No Iterations 3
DICPCG:  Solving for Uy, Initial residual = 0, Final residual = 0, No Iterations 0
smoothSolver:  Solving for epsilon, Initial residual = 0.108497, Final residual = 9.44402e-07, No Iterations 2
smoothSolver:  Solving for k, Initial residual = 0.123774, Final residual = 8.41554e-09, No Iterations 3
Uncorrected Ubar = 14.0168, pressure gradient = -54.7212
Rey = 38.1962, uTau = 0.098885, nut+ = 0, nuEff+ = 1, y+ = 6.18031, u+ = 6.18031, k+ = 2.55444e-06, epsilon+ = 8.56779e-08, omega+ = 0.372675
ExecutionTime = 0.067624 s  ClockTime = 1 s

Time = 65s

DICPCG:  Solving for Ux, Initial residual = 0.559789, Final residual = 7.70597e-08, No Iterations 3
DICPCG:  Solving for Uy, Initial residual = 0, Final residual = 0, No Iterations 0
smoothSolver:  Solving for epsilon, Initial residual = 0.155514, Final residual = 9.70741e-07, No Iterations 2
smoothSolver:  Solving for k, Initial residual = 0.143162, Final residual = 1.08342e-08, No Iterations 3
Uncorrected Ubar = 6.08904, pressure gradient = 53.8299
Rey = 119.223, uTau = 0.174703, nut+ = 0, nuEff+ = 1, y+ = 10.9189, u+ = 10.9189, k+ = 9.98415e-07, epsilon+ = 1.37286e-08, omega+ = 0.152782
ExecutionTime = 0.068454 s  ClockTime = 1 s

Time = 66s

DICPCG:  Solving for Ux, Initial residual = 0.527967, Final residual = 7.19262e-08, No Iterations 3
DICPCG:  Solving for Uy, Initial residual = 0, Final residual = 0, No Iterations 0
smoothSolver:  Solving for epsilon, Initial residual = 0.105681, Final residual = 4.09337e-09, No Iterations 3
smoothSolver:  Solving for k, Initial residual = 0.125228, Final residual = 1.09608e-08, No Iterations 3
Uncorrected Ubar = 13.8037, pressure gradient = -52.1398
Rey = 33.8183, uTau = 0.0930456, nut+ = 0, nuEff+ = 1, y+ = 5.81535, u+ = 5.81535, k+ = 5.31444e-06, epsilon+ = 2.08161e-07, omega+ = 0.43521
ExecutionTime = 0.069265 s  ClockTime = 1 s

Time = 67s

DICPCG:  Solving for Ux, Initial residual = 0.540664, Final residual = 7.39918e-08, No Iterations 3
DICPCG:  Solving for Uy, Initial residual = 0, Final residual = 0, No Iterations 0
smoothSolver:  Solving for epsilon, Initial residual = 0.198466, Final residual = 4.1332e-09, No Iterations 3
smoothSolver:  Solving for k, Initial residual = 0.144089, Final residual = 1.40288e-08, No Iterations 3
Uncorrected Ubar = 6.30241, pressure gradient = 51.2848
Rey = 114.043, uTau = 0.170865, nut+ = 0, nuEff+ = 1, y+ = 10.6791, u+ = 10.6791, k+ = 2.25937e-06, epsilon+ = 2.76378e-08, omega+ = 0.135917
ExecutionTime = 0.070109 s  ClockTime = 1 s

Time = 68s

DICPCG:  Solving for Ux, Initial residual = 0.510153, Final residual = 6.95725e-08, No Iterations 3
DICPCG:  Solving for Uy, Initial residual = 0, Final residual = 0, No Iterations 0
smoothSolver:  Solving for epsilon, Initial residual = 0.14141, Final residual = 6.72807e-09, No Iterations 3
smoothSolver:  Solving for k, Initial residual = 0.117351, Final residual = 1.59494e-08, No Iterations 3
Uncorrected Ubar = 13.5884, pressure gradient = -49.6456
Rey = 29.1197, uTau = 0.0863403, nut+ = 0, nuEff+ = 1, y+ = 5.39627, u+ = 5.39627, k+ = 1.37477e-05, epsilon+ = 6.07729e-07, omega+ = 0.491178
ExecutionTime = 0.072851 s  ClockTime = 1 s

Time = 69s

DICPCG:  Solving for Ux, Initial residual = 0.517686, Final residual = 7.06062e-08, No Iterations 3
DICPCG:  Solving for Uy, Initial residual = 0, Final residual = 0, No Iterations 0
smoothSolver:  Solving for epsilon, Initial residual = 0.251283, Final residual = 7.94268e-09, No Iterations 3
smoothSolver:  Solving for k, Initial residual = 0.145836, Final residual = 2.01674e-08, No Iterations 3
Uncorrected Ubar = 6.51819, pressure gradient = 48.8092
Rey = 108.803, uTau = 0.166894, nut+ = 0, nuEff+ = 1, y+ = 10.4309, u+ = 10.4309, k+ = 4.64565e-06, epsilon+ = 6.76342e-08, omega+ = 0.161762
ExecutionTime = 0.073825 s  ClockTime = 1 s

Time = 70s

DICPCG:  Solving for Ux, Initial residual = 0.49207, Final residual = 6.72982e-08, No Iterations 3
DICPCG:  Solving for Uy, Initial residual = 0, Final residual = 0, No Iterations 0
smoothSolver:  Solving for epsilon, Initial residual = 0.205844, Final residual = 1.21822e-08, No Iterations 3
smoothSolver:  Solving for k, Initial residual = 0.11301, Final residual = 2.98805e-08, No Iterations 3
Uncorrected Ubar = 13.3719, pressure gradient = -47.2054
Rey = 24.1545, uTau = 0.0786356, nut+ = 0, nuEff+ = 1, y+ = 4.91473, u+ = 4.91473, k+ = 3.17786e-05, epsilon+ = 1.73268e-06, omega+ = 0.605817
ExecutionTime = 0.07468 s  ClockTime = 1 s

Time = 71s

DICPCG:  Solving for Ux, Initial residual = 0.490004, Final residual = 6.81396e-08, No Iterations 3
DICPCG:  Solving for Uy, Initial residual = 0, Final residual = 0, No Iterations 0
smoothSolver:  Solving for epsilon, Initial residual = 0.311652, Final residual = 1.70235e-08, No Iterations 3
smoothSolver:  Solving for k, Initial residual = 0.161518, Final residual = 5.01805e-08, No Iterations 3
Uncorrected Ubar = 6.73431, pressure gradient = 46.366
Rey = 103.699, uTau = 0.162932, nut+ = 0, nuEff+ = 1, y+ = 10.1833, u+ = 10.1833, k+ = 1.01326e-05, epsilon+ = 1.42763e-07, omega+ = 0.15655
ExecutionTime = 0.075522 s  ClockTime = 1 s

Time = 72s

DICPCG:  Solving for Ux, Initial residual = 0.471271, Final residual = 7.00904e-08, No Iterations 3
DICPCG:  Solving for Uy, Initial residual = 0, Final residual = 0, No Iterations 0
smoothSolver:  Solving for epsilon, Initial residual = 0.268459, Final residual = 2.38617e-08, No Iterations 3
smoothSolver:  Solving for k, Initial residual = 0.116948, Final residual = 6.99698e-08, No Iterations 3
Uncorrected Ubar = 13.1584, pressure gradient = -44.7834
Rey = 19.1343, uTau = 0.0699885, nut+ = 0, nuEff+ = 1, y+ = 4.37428, u+ = 4.37428, k+ = 8.46852e-05, epsilon+ = 5.73981e-06, omega+ = 0.753091
ExecutionTime = 0.07635 s  ClockTime = 1 s

Time = 73s

DICPCG:  Solving for Ux, Initial residual = 0.458333, Final residual = 7.87214e-08, No Iterations 3
DICPCG:  Solving for Uy, Initial residual = 0, Final residual = 0, No Iterations 0
smoothSolver:  Solving for epsilon, Initial residual = 0.344873, Final residual = 3.60749e-08, No Iterations 3
smoothSolver:  Solving for k, Initial residual = 0.177032, Final residual = 2.19019e-07, No Iterations 3
Uncorrected Ubar = 6.94567, pressure gradient = 43.9286
Rey = 99.0066, uTau = 0.159203, nut+ = 0, nuEff+ = 1, y+ = 9.95021, u+ = 9.95021, k+ = 2.11465e-05, epsilon+ = 3.30615e-07, omega+ = 0.173716
ExecutionTime = 0.07718 s  ClockTime = 1 s

Time = 74s

DICPCG:  Solving for Ux, Initial residual = 0.446567, Final residual = 8.94445e-08, No Iterations 3
DICPCG:  Solving for Uy, Initial residual = 0, Final residual = 0, No Iterations 0
smoothSolver:  Solving for epsilon, Initial residual = 0.304457, Final residual = 4.6906e-08, No Iterations 3
smoothSolver:  Solving for k, Initial residual = 0.124543, Final residual = 1.76234e-07, No Iterations 3
Uncorrected Ubar = 12.9513, pressure gradient = -42.363
Rey = 14.1356, uTau = 0.0601557, nut+ = 0, nuEff+ = 1, y+ = 3.75973, u+ = 3.75973, k+ = 0.000225326, epsilon+ = 2.09559e-05, omega+ = 1.03336
ExecutionTime = 0.078022 s  ClockTime = 1 s

Time = 75s

DICPCG:  Solving for Ux, Initial residual = 0.424282, Final residual = 9.65938e-08, No Iterations 3
DICPCG:  Solving for Uy, Initial residual = 0, Final residual = 0, No Iterations 0
smoothSolver:  Solving for epsilon, Initial residual = 0.363858, Final residual = 7.29417e-08, No Iterations 3
smoothSolver:  Solving for k, Initial residual = 0.18268, Final residual = 6.60726e-07, No Iterations 3
Uncorrected Ubar = 7.1495, pressure gradient = 41.4984
Rey = 94.8866, uTau = 0.155856, nut+ = 0, nuEff+ = 1, y+ = 9.74098, u+ = 9.74098, k+ = 4.44458e-05, epsilon+ = 7.07529e-07, omega+ = 0.176877
ExecutionTime = 0.079039 s  ClockTime = 1 s

Time = 76s

DICPCG:  Solving for Ux, Initial residual = 0.419196, Final residual = 1.05352e-07, No Iterations 3
DICPCG:  Solving for Uy, Initial residual = 0, Final residual = 0, No Iterations 0
smoothSolver:  Solving for epsilon, Initial residual = 0.323474, Final residual = 9.61991e-08, No Iterations 3
smoothSolver:  Solving for k, Initial residual = 0.131068, Final residual = 3.63169e-07, No Iterations 3
Uncorrected Ubar = 12.7505, pressure gradient = -39.9563
Rey = 9.0588, uTau = 0.0481565, nut+ = 0, nuEff+ = 1, y+ = 3.00978, u+ = 3.00978, k+ = 0.000710893, epsilon+ = 0.000102784, omega+ = 1.60649
ExecutionTime = 0.079977 s  ClockTime = 1 s

Time = 77s

DICPCG:  Solving for Ux, Initial residual = 0.389052, Final residual = 1.02839e-07, No Iterations 3
DICPCG:  Solving for Uy, Initial residual = 0, Final residual = 0, No Iterations 0
smoothSolver:  Solving for epsilon, Initial residual = 0.372383, Final residual = 1.36977e-07, No Iterations 3
smoothSolver:  Solving for k, Initial residual = 0.181343, Final residual = 5.10181e-08, No Iterations 4
Uncorrected Ubar = 7.34631, pressure gradient = 39.1008
Rey = 91.3532, uTau = 0.152926, nut+ = 0, nuEff+ = 1, y+ = 9.55789, u+ = 9.55789, k+ = 9.19923e-05, epsilon+ = 1.54332e-06, omega+ = 0.186407
ExecutionTime = 0.080921 s  ClockTime = 1 s

Time = 78s

DICPCG:  Solving for Ux, Initial residual = 0.390045, Final residual = 1.0761e-07, No Iterations 3
DICPCG:  Solving for Uy, Initial residual = 0, Final residual = 0, No Iterations 0
smoothSolver:  Solving for epsilon, Initial residual = 0.325366, Final residual = 1.85727e-07, No Iterations 3
smoothSolver:  Solving for k, Initial residual = 0.138945, Final residual = 9.92699e-07, No Iterations 3
Uncorrected Ubar = 12.5563, pressure gradient = -37.5987
Rey = 3.86191, uTau = 0.0314428, nut+ = 0, nuEff+ = 1, y+ = 1.96517, u+ = 1.96517, k+ = 0.00330267, epsilon+ = 0.00112694, omega+ = 3.79134
ExecutionTime = 0.081783 s  ClockTime = 1 s

Time = 79s

DICPCG:  Solving for Ux, Initial residual = 0.354178, Final residual = 1.01992e-07, No Iterations 3
DICPCG:  Solving for Uy, Initial residual = 0, Final residual = 0, No Iterations 0
smoothSolver:  Solving for epsilon, Initial residual = 0.377329, Final residual = 2.57377e-07, No Iterations 3
smoothSolver:  Solving for k, Initial residual = 0.180475, Final residual = 1.2759e-07, No Iterations 4
Uncorrected Ubar = 7.5368, pressure gradient = 36.7727
Rey = 88.3369, uTau = 0.15038, nut+ = 0, nuEff+ = 1, y+ = 9.39877, u+ = 9.39877, k+ = 0.000189585, epsilon+ = 3.26899e-06, omega+ = 0.191588
ExecutionTime = 0.082651 s  ClockTime = 1 s

Time = 80s

DICPCG:  Solving for Ux, Initial residual = 0.3593, Final residual = 9.92008e-08, No Iterations 3
DICPCG:  Solving for Uy, Initial residual = 0, Final residual = 0, No Iterations 0
smoothSolver:  Solving for epsilon, Initial residual = 0.317293, Final residual = 3.14195e-07, No Iterations 3
smoothSolver:  Solving for k, Initial residual = 0.136754, Final residual = 9.63797e-08, No Iterations 4
Uncorrected Ubar = 12.3682, pressure gradient = -35.3263
Rey = 1.53006, uTau = 0.0197913, nut+ = 0, nuEff+ = 1, y+ = 1.23696, u+ = 1.23696, k+ = 0.0165824, epsilon+ = 0.0143074, omega+ = 9.58671
ExecutionTime = 0.083638 s  ClockTime = 1 s

Time = 81s

DICPCG:  Solving for Ux, Initial residual = 0.318971, Final residual = 9.32799e-08, No Iterations 3
DICPCG:  Solving for Uy, Initial residual = 0, Final residual = 0, No Iterations 0
smoothSolver:  Solving for epsilon, Initial residual = 0.371612, Final residual = 4.65331e-07, No Iterations 3
smoothSolver:  Solving for k, Initial residual = 0.179817, Final residual = 2.69434e-07, No Iterations 4
Uncorrected Ubar = 7.72154, pressure gradient = 34.5382
Rey = 85.8202, uTau = 0.148223, nut+ = 0, nuEff+ = 1, y+ = 9.26392, u+ = 9.26392, k+ = 0.000389691, epsilon+ = 6.8898e-06, omega+ = 0.196446
ExecutionTime = 0.08456 s  ClockTime = 1 s

Time = 82s

DICPCG:  Solving for Ux, Initial residual = 0.327165, Final residual = 9.03673e-08, No Iterations 3
DICPCG:  Solving for Uy, Initial residual = 0, Final residual = 0, No Iterations 0
smoothSolver:  Solving for epsilon, Initial residual = 0.290062, Final residual = 4.94263e-07, No Iterations 3
smoothSolver:  Solving for k, Initial residual = 0.127407, Final residual = 2.23742e-07, No Iterations 4
Uncorrected Ubar = 12.185, pressure gradient = -33.1534
Rey = 7.25104, uTau = 0.0430844, nut+ = 0, nuEff+ = 1, y+ = 2.69278, u+ = 2.69278, k+ = 0.00695959, epsilon+ = 0.00127215, omega+ = 2.03101
ExecutionTime = 0.085415 s  ClockTime = 1 s

Time = 83s

DICPCG:  Solving for Ux, Initial residual = 0.282026, Final residual = 8.16888e-08, No Iterations 3
DICPCG:  Solving for Uy, Initial residual = 0, Final residual = 0, No Iterations 0
smoothSolver:  Solving for epsilon, Initial residual = 0.358674, Final residual = 7.85286e-07, No Iterations 3
smoothSolver:  Solving for k, Initial residual = 0.178228, Final residual = 4.83157e-07, No Iterations 4
Uncorrected Ubar = 7.90096, pressure gradient = 32.405
Rey = 83.9066, uTau = 0.146561, nut+ = 0, nuEff+ = 1, y+ = 9.16005, u+ = 9.16005, k+ = 0.000800696, epsilon+ = 1.43358e-05, omega+ = 0.198935
ExecutionTime = 0.086255 s  ClockTime = 1 s

Time = 84s

DICPCG:  Solving for Ux, Initial residual = 0.291842, Final residual = 8.17568e-08, No Iterations 3
DICPCG:  Solving for Uy, Initial residual = 0, Final residual = 0, No Iterations 0
smoothSolver:  Solving for epsilon, Initial residual = 0.264668, Final residual = 7.73409e-07, No Iterations 3
smoothSolver:  Solving for k, Initial residual = 0.117831, Final residual = 4.61091e-07, No Iterations 4
Uncorrected Ubar = 12.0064, pressure gradient = -31.0809
Rey = 13.4401, uTau = 0.0586571, nut+ = 0, nuEff+ = 1, y+ = 3.66607, u+ = 3.66607, k+ = 0.00750782, epsilon+ = 0.00074386, omega+ = 1.10087
ExecutionTime = 0.087375 s  ClockTime = 1 s

Time = 85s

DICPCG:  Solving for Ux, Initial residual = 0.242976, Final residual = 7.18632e-08, No Iterations 3
DICPCG:  Solving for Uy, Initial residual = 0, Final residual = 0, No Iterations 0
smoothSolver:  Solving for epsilon, Initial residual = 0.340313, Final residual = 3.99495e-08, No Iterations 4
smoothSolver:  Solving for k, Initial residual = 0.169322, Final residual = 7.07419e-07, No Iterations 4
Uncorrected Ubar = 8.07491, pressure gradient = 30.375
Rey = 82.8028, uTau = 0.145594, nut+ = 0, nuEff+ = 1, y+ = 9.09961, u+ = 9.09961, k+ = 0.00164684, epsilon+ = 2.94344e-05, omega+ = 0.198592
ExecutionTime = 0.089339 s  ClockTime = 1 s

Time = 86s

DICPCG:  Solving for Ux, Initial residual = 0.253728, Final residual = 7.80162e-08, No Iterations 3
DICPCG:  Solving for Uy, Initial residual = 0, Final residual = 0, No Iterations 0
smoothSolver:  Solving for epsilon, Initial residual = 0.240781, Final residual = 4.69987e-08, No Iterations 4
smoothSolver:  Solving for k, Initial residual = 0.107669, Final residual = 9.40901e-07, No Iterations 4
Uncorrected Ubar = 11.8338, pressure gradient = -29.1075
Rey = 20.2126, uTau = 0.0719334, nut+ = 0, nuEff+ = 1, y+ = 4.49584, u+ = 4.49584, k+ = 0.010071, epsilon+ = 0.000667549, omega+ = 0.736494
ExecutionTime = 0.090266 s  ClockTime = 1 s

Time = 87s

DICPCG:  Solving for Ux, Initial residual = 0.201252, Final residual = 6.95942e-08, No Iterations 3
DICPCG:  Solving for Uy, Initial residual = 0, Final residual = 0, No Iterations 0
smoothSolver:  Solving for epsilon, Initial residual = 0.319095, Final residual = 7.84435e-08, No Iterations 4
smoothSolver:  Solving for k, Initial residual = 0.154272, Final residual = 1.11421e-07, No Iterations 5
Uncorrected Ubar = 8.24249, pressure gradient = 28.4489
Rey = 82.8023, uTau = 0.145593, nut+ = 0, nuEff+ = 1, y+ = 9.09958, u+ = 9.09958, k+ = 0.00339163, epsilon+ = 5.93796e-05, omega+ = 0.19453
ExecutionTime = 0.091151 s  ClockTime = 1 s

Time = 88s

DICPCG:  Solving for Ux, Initial residual = 0.212878, Final residual = 8.2274e-08, No Iterations 3
DICPCG:  Solving for Uy, Initial residual = 0, Final residual = 0, No Iterations 0
smoothSolver:  Solving for epsilon, Initial residual = 0.217601, Final residual = 1.01409e-07, No Iterations 4
smoothSolver:  Solving for k, Initial residual = 0.096522, Final residual = 2.44925e-07, No Iterations 5
Uncorrected Ubar = 11.6694, pressure gradient = -27.2312
Rey = 27.7052, uTau = 0.0842171, nut+ = 0, nuEff+ = 1, y+ = 5.26357, u+ = 5.26357, k+ = 0.0150273, epsilon+ = 0.000731745, omega+ = 0.541049
ExecutionTime = 0.092049 s  ClockTime = 1 s

Time = 89s

DICPCG:  Solving for Ux, Initial residual = 0.159487, Final residual = 6.5985e-08, No Iterations 3
DICPCG:  Solving for Uy, Initial residual = 0, Final residual = 0, No Iterations 0
smoothSolver:  Solving for epsilon, Initial residual = 0.29912, Final residual = 1.62911e-07, No Iterations 4
smoothSolver:  Solving for k, Initial residual = 0.138678, Final residual = 3.55096e-07, No Iterations 5
Uncorrected Ubar = 8.40182, pressure gradient = 26.6229
Rey = 84.3537, uTau = 0.146951, nut+ = 0, nuEff+ = 1, y+ = 9.18443, u+ = 9.18443, k+ = 0.00698917, epsilon+ = 0.000117021, omega+ = 0.186035
ExecutionTime = 0.093065 s  ClockTime = 1 s

Time = 90s

DICPCG:  Solving for Ux, Initial residual = 0.171368, Final residual = 6.93406e-08, No Iterations 3
DICPCG:  Solving for Uy, Initial residual = 0, Final residual = 0, No Iterations 0
smoothSolver:  Solving for epsilon, Initial residual = 0.194481, Final residual = 2.32031e-07, No Iterations 4
smoothSolver:  Solving for k, Initial residual = 0.0895343, Final residual = 6.93962e-07, No Iterations 5
Uncorrected Ubar = 11.5154, pressure gradient = -25.4507
Rey = 36.1889, uTau = 0.0962516, nut+ = 0, nuEff+ = 1, y+ = 6.01572, u+ = 6.01572, k+ = 0.0240276, epsilon+ = 0.000900343, omega+ = 0.416348
ExecutionTime = 0.093923 s  ClockTime = 1 s

Time = 91s

DICPCG:  Solving for Ux, Initial residual = 0.121838, Final residual = 4.58519e-08, No Iterations 3
DICPCG:  Solving for Uy, Initial residual = 0, Final residual = 0, No Iterations 0
smoothSolver:  Solving for epsilon, Initial residual = 0.277308, Final residual = 3.72419e-07, No Iterations 4
smoothSolver:  Solving for k, Initial residual = 0.125412, Final residual = 1.43797e-07, No Iterations 6
Uncorrected Ubar = 8.55042, pressure gradient = 24.8982
Rey = 88.1878, uTau = 0.150253, nut+ = 0, nuEff+ = 1, y+ = 9.39084, u+ = 9.39084, k+ = 0.0144117, epsilon+ = 0.000223614, omega+ = 0.172401
ExecutionTime = 0.094953 s  ClockTime = 1 s

Time = 92s

DICPCG:  Solving for Ux, Initial residual = 0.132105, Final residual = 5.26578e-08, No Iterations 3
DICPCG:  Solving for Uy, Initial residual = 0, Final residual = 0, No Iterations 0
smoothSolver:  Solving for epsilon, Initial residual = 0.167091, Final residual = 5.40799e-07, No Iterations 4
smoothSolver:  Solving for k, Initial residual = 0.0885254, Final residual = 2.55508e-07, No Iterations 6
Uncorrected Ubar = 11.3732, pressure gradient = -23.7759
Rey = 46.2937, uTau = 0.108863, nut+ = 0, nuEff+ = 1, y+ = 6.80394, u+ = 6.80394, k+ = 0.0406509, epsilon+ = 0.00118607, omega+ = 0.324189
ExecutionTime = 0.095965 s  ClockTime = 1 s

Time = 93s

DICPCG:  Solving for Ux, Initial residual = 0.0904905, Final residual = 3.07019e-08, No Iterations 3
DICPCG:  Solving for Uy, Initial residual = 0, Final residual = 0, No Iterations 0
smoothSolver:  Solving for epsilon, Initial residual = 0.242781, Final residual = 8.75329e-07, No Iterations 4
smoothSolver:  Solving for k, Initial residual = 0.11438, Final residual = 4.02134e-07, No Iterations 6
Uncorrected Ubar = 8.68635, pressure gradient = 23.2956
Rey = 95.5287, uTau = 0.156382, nut+ = 0, nuEff+ = 1, y+ = 9.77388, u+ = 9.77388, k+ = 0.0300395, epsilon+ = 0.000412433, omega+ = 0.152552
ExecutionTime = 0.096903 s  ClockTime = 1 s

Time = 94s

DICPCG:  Solving for Ux, Initial residual = 0.0985068, Final residual = 5.67714e-08, No Iterations 3
DICPCG:  Solving for Uy, Initial residual = 0, Final residual = 0, No Iterations 0
smoothSolver:  Solving for epsilon, Initial residual = 0.131526, Final residual = 1.23988e-07, No Iterations 5
smoothSolver:  Solving for k, Initial residual = 0.0870836, Final residual = 6.55144e-07, No Iterations 6
Uncorrected Ubar = 11.2441, pressure gradient = -22.2376
Rey = 59.3496, uTau = 0.123262, nut+ = 0, nuEff+ = 1, y+ = 7.70387, u+ = 7.70387, k+ = 0.0737292, epsilon+ = 0.00162938, omega+ = 0.24555
ExecutionTime = 0.097774 s  ClockTime = 1 s

Time = 95s

DICPCG:  Solving for Ux, Initial residual = 0.0663551, Final residual = 3.9015e-08, No Iterations 3
DICPCG:  Solving for Uy, Initial residual = 0, Final residual = 0, No Iterations 0
smoothSolver:  Solving for epsilon, Initial residual = 0.203594, Final residual = 2.02387e-07, No Iterations 5
smoothSolver:  Solving for k, Initial residual = 0.10557, Final residual = 9.84065e-07, No Iterations 6
Uncorrected Ubar = 8.80763, pressure gradient = 21.8606
Rey = 108.651, uTau = 0.166777, nut+ = 0, nuEff+ = 1, y+ = 10.4236, u+ = 10.4236, k+ = 0.0657232, epsilon+ = 0.000741341, omega+ = 0.12533
ExecutionTime = 0.098632 s  ClockTime = 1 s

Time = 96s

DICPCG:  Solving for Ux, Initial residual = 0.0720845, Final residual = 7.38644e-08, No Iterations 3
DICPCG:  Solving for Uy, Initial residual = 0, Final residual = 0, No Iterations 0
smoothSolver:  Solving for epsilon, Initial residual = 0.0978916, Final residual = 3.07328e-07, No Iterations 5
smoothSolver:  Solving for k, Initial residual = 0.0871162, Final residual = 2.70328e-07, No Iterations 7
Uncorrected Ubar = 11.1301, pressure gradient = -20.8905
Rey = 78.1982, uTau = 0.141488, nut+ = 0, nuEff+ = 1, y+ = 8.84298, u+ = 8.84298, k+ = 0.15042, epsilon+ = 0.00233555, omega+ = 0.172521
ExecutionTime = 0.099497 s  ClockTime = 1 s

Time = 97s

DICPCG:  Solving for Ux, Initial residual = 0.048936, Final residual = 3.65745e-08, No Iterations 3
DICPCG:  Solving for Uy, Initial residual = 0, Final residual = 0, No Iterations 0
smoothSolver:  Solving for epsilon, Initial residual = 0.16895, Final residual = 4.50656e-07, No Iterations 5
smoothSolver:  Solving for k, Initial residual = 0.099775, Final residual = 3.96548e-07, No Iterations 7
Uncorrected Ubar = 8.912, pressure gradient = 20.6645
Rey = 132.81, uTau = 0.184389, nut+ = 0, nuEff+ = 1, y+ = 11.5243, u+ = 11.5243, k+ = 0.161185, epsilon+ = 0.00133373, omega+ = 0.0919395
ExecutionTime = 0.100336 s  ClockTime = 1 s

Time = 98s

DICPCG:  Solving for Ux, Initial residual = 0.0525986, Final residual = 4.43432e-08, No Iterations 3
DICPCG:  Solving for Uy, Initial residual = 0, Final residual = 0, No Iterations 0
smoothSolver:  Solving for epsilon, Initial residual = 0.0723141, Final residual = 6.66657e-07, No Iterations 5
smoothSolver:  Solving for k, Initial residual = 0.0869391, Final residual = 5.30526e-07, No Iterations 7
Uncorrected Ubar = 11.0344, pressure gradient = -19.8198
Rey = 109.024, uTau = 0.167063, nut+ = 0, nuEff+ = 1, y+ = 10.4415, u+ = 10.4415, k+ = 0.36655, epsilon+ = 0.00360199, omega+ = 0.109186
ExecutionTime = 0.101329 s  ClockTime = 1 s

Time = 99s

DICPCG:  Solving for Ux, Initial residual = 0.0376349, Final residual = 3.49746e-08, No Iterations 3
DICPCG:  Solving for Uy, Initial residual = 0, Final residual = 0, No Iterations 0
smoothSolver:  Solving for epsilon, Initial residual = 0.135066, Final residual = 8.74258e-07, No Iterations 5
smoothSolver:  Solving for k, Initial residual = 0.0924177, Final residual = 6.90297e-07, No Iterations 7
Uncorrected Ubar = 8.99707, pressure gradient = 19.8051
Rey = 176.946, uTau = 0.212834, nut+ = 0, nuEff+ = 1, y+ = 13.3021, u+ = 13.3021, k+ = 0.459324, epsilon+ = 0.00255273, omega+ = 0.0617509
ExecutionTime = 0.10227 s  ClockTime = 1 s

Time = 100s

DICPCG:  Solving for Ux, Initial residual = 0.0384241, Final residual = 3.73791e-08, No Iterations 3
DICPCG:  Solving for Uy, Initial residual = 0, Final residual = 0, No Iterations 0
smoothSolver:  Solving for epsilon, Initial residual = 0.0726026, Final residual = 2.00802e-07, No Iterations 6
smoothSolver:  Solving for k, Initial residual = 0.0848802, Final residual = 8.17925e-07, No Iterations 7
Uncorrected Ubar = 10.9588, pressure gradient = -19.0569
Rey = 155.737, uTau = 0.199671, nut+ = 0, nuEff+ = 1, y+ = 12.4795, u+ = 12.4795, k+ = 1.03626, epsilon+ = 0.00670204, omega+ = 0.0718613
ExecutionTime = 0.10818 s  ClockTime = 1 s

Time = 101s

DICPCG:  Solving for Ux, Initial residual = 0.0315645, Final residual = 8.62046e-08, No Iterations 3
DICPCG:  Solving for Uy, Initial residual = 0, Final residual = 0, No Iterations 0
smoothSolver:  Solving for epsilon, Initial residual = 0.0884824, Final residual = 2.44125e-07, No Iterations 6
smoothSolver:  Solving for k, Initial residual = 0.0845318, Final residual = 2.29357e-07, No Iterations 8
Uncorrected Ubar = 9.05987, pressure gradient = 19.3448
Rey = 230.636, uTau = 0.242987, nut+ = 0, nuEff+ = 1, y+ = 15.1867, u+ = 15.1867, k+ = 1.29085, epsilon+ = 0.00606788, omega+ = 0.05223
ExecutionTime = 0.109612 s  ClockTime = 1 s

Time = 102s

DICPCG:  Solving for Ux, Initial residual = 0.0290977, Final residual = 7.67495e-08, No Iterations 3
DICPCG:  Solving for Uy, Initial residual = 0, Final residual = 0, No Iterations 0
smoothSolver:  Solving for epsilon, Initial residual = 0.0653645, Final residual = 3.83771e-07, No Iterations 6
smoothSolver:  Solving for k, Initial residual = 0.0821227, Final residual = 2.73532e-07, No Iterations 8
Uncorrected Ubar = 10.904, pressure gradient = -18.4488
Rey = 198.985, uTau = 0.22906, nut+ = 0.029997, nuEff+ = 1.03, y+ = 14.3162, u+ = 13.8993, k+ = 2.33031, epsilon+ = 0.0141748, omega+ = 0.0675866
ExecutionTime = 0.110672 s  ClockTime = 1 s

Time = 103s

DICPCG:  Solving for Ux, Initial residual = 0.0245113, Final residual = 8.80789e-08, No Iterations 3
DICPCG:  Solving for Uy, Initial residual = 0, Final residual = 0, No Iterations 0
smoothSolver:  Solving for epsilon, Initial residual = 0.0566251, Final residual = 3.08065e-07, No Iterations 6
smoothSolver:  Solving for k, Initial residual = 0.0956635, Final residual = 3.05451e-07, No Iterations 8
Uncorrected Ubar = 9.10889, pressure gradient = 18.9792
Rey = 265.313, uTau = 0.293359, nut+ = 0.267072, nuEff+ = 1.26707, y+ = 18.335, u+ = 14.4703, k+ = 2.39139, epsilon+ = 0.0370156, omega+ = 0.171985
ExecutionTime = 0.111852 s  ClockTime = 1 s

Time = 104s

DICPCG:  Solving for Ux, Initial residual = 0.0224981, Final residual = 1.75325e-08, No Iterations 3
DICPCG:  Solving for Uy, Initial residual = 0, Final residual = 0, No Iterations 0
smoothSolver:  Solving for epsilon, Initial residual = 0.0497107, Final residual = 3.16873e-07, No Iterations 6
smoothSolver:  Solving for k, Initial residual = 0.0660872, Final residual = 3.22969e-07, No Iterations 8
Uncorrected Ubar = 10.8613, pressure gradient = -17.8833
Rey = 220.114, uTau = 0.27571, nut+ = 0.349022, nuEff+ = 1.34902, y+ = 17.2319, u+ = 12.7736, k+ = 3.165, epsilon+ = 0.103605, omega+ = 0.363718
ExecutionTime = 0.112768 s  ClockTime = 1 s

Time = 105s

DICPCG:  Solving for Ux, Initial residual = 0.0197177, Final residual = 1.65579e-08, No Iterations 3
DICPCG:  Solving for Uy, Initial residual = 0, Final residual = 0, No Iterations 0
smoothSolver:  Solving for epsilon, Initial residual = 0.0306612, Final residual = 2.77639e-07, No Iterations 6
smoothSolver:  Solving for k, Initial residual = 0.0638345, Final residual = 3.81835e-07, No Iterations 8
Uncorrected Ubar = 9.15221, pressure gradient = 18.479
Rey = 270.314, uTau = 0.318349, nut+ = 0.464533, nuEff+ = 1.46453, y+ = 19.8968, u+ = 13.5858, k+ = 2.9108, epsilon+ = 0.0736756, omega+ = 0.281235
ExecutionTime = 0.11367 s  ClockTime = 1 s

Time = 106s

DICPCG:  Solving for Ux, Initial residual = 0.0178053, Final residual = 9.25469e-07, No Iterations 2
DICPCG:  Solving for Uy, Initial residual = 0, Final residual = 0, No Iterations 0
smoothSolver:  Solving for epsilon, Initial residual = 0.0247334, Final residual = 3.15707e-07, No Iterations 6
smoothSolver:  Solving for k, Initial residual = 0.0400597, Final residual = 4.00676e-07, No Iterations 8
Uncorrected Ubar = 10.8158, pressure gradient = -17.2811
Rey = 226.731, uTau = 0.292534, nut+ = 0.474359, nuEff+ = 1.47436, y+ = 18.2834, u+ = 12.4009, k+ = 3.50472, epsilon+ = 0.140294, omega+ = 0.444778
ExecutionTime = 0.114619 s  ClockTime = 1 s

Time = 107s

DICPCG:  Solving for Ux, Initial residual = 0.0158004, Final residual = 1.67877e-08, No Iterations 3
DICPCG:  Solving for Uy, Initial residual = 0, Final residual = 0, No Iterations 0
smoothSolver:  Solving for epsilon, Initial residual = 0.012371, Final residual = 3.01496e-07, No Iterations 6
smoothSolver:  Solving for k, Initial residual = 0.0434647, Final residual = 4.70683e-07, No Iterations 8
Uncorrected Ubar = 9.1988, pressure gradient = 17.9496
Rey = 274.126, uTau = 0.329208, nut+ = 0.544367, nuEff+ = 1.54437, y+ = 20.5755, u+ = 13.3229, k+ = 3.10356, epsilon+ = 0.0896702, omega+ = 0.32103
ExecutionTime = 0.115493 s  ClockTime = 1 s

Time = 108s

DICPCG:  Solving for Ux, Initial residual = 0.0149275, Final residual = 6.06441e-07, No Iterations 2
DICPCG:  Solving for Uy, Initial residual = 0, Final residual = 0, No Iterations 0
smoothSolver:  Solving for epsilon, Initial residual = 0.0148315, Final residual = 3.55243e-07, No Iterations 6
smoothSolver:  Solving for k, Initial residual = 0.0333998, Final residual = 4.80261e-07, No Iterations 8
Uncorrected Ubar = 10.7704, pressure gradient = -16.67
Rey = 232.396, uTau = 0.30147, nut+ = 0.527638, nuEff+ = 1.52764, y+ = 18.8419, u+ = 12.334, k+ = 3.60274, epsilon+ = 0.15144, omega+ = 0.467052
ExecutionTime = 0.116439 s  ClockTime = 1 s

Time = 109s

DICPCG:  Solving for Ux, Initial residual = 0.0133577, Final residual = 8.76812e-07, No Iterations 2
DICPCG:  Solving for Uy, Initial residual = 0, Final residual = 0, No Iterations 0
smoothSolver:  Solving for epsilon, Initial residual = 0.00792241, Final residual = 3.40345e-07, No Iterations 6
smoothSolver:  Solving for k, Initial residual = 0.0338436, Final residual = 5.54974e-07, No Iterations 8
Uncorrected Ubar = 9.24355, pressure gradient = 17.3888
Rey = 276.644, uTau = 0.334334, nut+ = 0.578341, nuEff+ = 1.57834, y+ = 20.8959, u+ = 13.2392, k+ = 3.17505, epsilon+ = 0.0961559, omega+ = 0.336499
ExecutionTime = 0.117313 s  ClockTime = 1 s

Time = 110s

DICPCG:  Solving for Ux, Initial residual = 0.0127754, Final residual = 5.23874e-07, No Iterations 2
DICPCG:  Solving for Uy, Initial residual = 0, Final residual = 0, No Iterations 0
smoothSolver:  Solving for epsilon, Initial residual = 0.0113264, Final residual = 4.03609e-07, No Iterations 6
smoothSolver:  Solving for k, Initial residual = 0.0297878, Final residual = 5.51947e-07, No Iterations 8
Uncorrected Ubar = 10.7268, pressure gradient = -16.0557
Rey = 237.017, uTau = 0.306956, nut+ = 0.552855, nuEff+ = 1.55286, y+ = 19.1847, u+ = 12.3545, k+ = 3.61846, epsilon+ = 0.152716, omega+ = 0.46894
ExecutionTime = 0.118168 s  ClockTime = 1 s

Time = 111s

DICPCG:  Solving for Ux, Initial residual = 0.0116714, Final residual = 1.33498e-08, No Iterations 3
DICPCG:  Solving for Uy, Initial residual = 0, Final residual = 0, No Iterations 0
smoothSolver:  Solving for epsilon, Initial residual = 0.00741989, Final residual = 3.8815e-07, No Iterations 6
smoothSolver:  Solving for k, Initial residual = 0.0293032, Final residual = 6.32517e-07, No Iterations 8
Uncorrected Ubar = 9.2877, pressure gradient = 16.8116
Rey = 278.386, uTau = 0.337153, nut+ = 0.595024, nuEff+ = 1.59502, y+ = 21.0721, u+ = 13.2111, k+ = 3.20415, epsilon+ = 0.0987917, omega+ = 0.342583
ExecutionTime = 0.11948 s  ClockTime = 1 s

Time = 112s

DICPCG:  Solving for Ux, Initial residual = 0.0110469, Final residual = 4.79142e-07, No Iterations 2
DICPCG:  Solving for Uy, Initial residual = 0, Final residual = 0, No Iterations 0
smoothSolver:  Solving for epsilon, Initial residual = 0.00979566, Final residual = 4.60019e-07, No Iterations 6
smoothSolver:  Solving for k, Initial residual = 0.0274386, Final residual = 6.14462e-07, No Iterations 8
Uncorrected Ubar = 10.6817, pressure gradient = -15.4008
Rey = 241.235, uTau = 0.311187, nut+ = 0.568057, nuEff+ = 1.56806, y+ = 19.4492, u+ = 12.4034, k+ = 3.60636, epsilon+ = 0.150308, omega+ = 0.463096
ExecutionTime = 0.120465 s  ClockTime = 1 s

Time = 113s

DICPCG:  Solving for Ux, Initial residual = 0.0102953, Final residual = 8.5702e-07, No Iterations 2
DICPCG:  Solving for Uy, Initial residual = 0, Final residual = 0, No Iterations 0
smoothSolver:  Solving for epsilon, Initial residual = 0.00651188, Final residual = 4.34233e-07, No Iterations 6
smoothSolver:  Solving for k, Initial residual = 0.0264137, Final residual = 6.96446e-07, No Iterations 8
Uncorrected Ubar = 9.33271, pressure gradient = 16.2363
Rey = 279.818, uTau = 0.339153, nut+ = 0.60574, nuEff+ = 1.60574, y+ = 21.197, u+ = 13.2008, k+ = 3.21915, epsilon+ = 0.100024, omega+ = 0.345241
ExecutionTime = 0.121964 s  ClockTime = 1 s

Time = 114s

DICPCG:  Solving for Ux, Initial residual = 0.00964629, Final residual = 4.07508e-07, No Iterations 2
DICPCG:  Solving for Uy, Initial residual = 0, Final residual = 0, No Iterations 0
smoothSolver:  Solving for epsilon, Initial residual = 0.0088853, Final residual = 5.11255e-07, No Iterations 6
smoothSolver:  Solving for k, Initial residual = 0.0250586, Final residual = 6.6559e-07, No Iterations 8
Uncorrected Ubar = 10.6396, pressure gradient = -14.7778
Rey = 245.034, uTau = 0.314772, nut+ = 0.579527, nuEff+ = 1.57953, y+ = 19.6733, u+ = 12.4552, k+ = 3.58859, epsilon+ = 0.147174, omega+ = 0.455684
ExecutionTime = 0.12309 s  ClockTime = 1 s

Time = 115s

DICPCG:  Solving for Ux, Initial residual = 0.00915579, Final residual = 9.23344e-07, No Iterations 2
DICPCG:  Solving for Uy, Initial residual = 0, Final residual = 0, No Iterations 0
smoothSolver:  Solving for epsilon, Initial residual = 0.00655435, Final residual = 4.76377e-07, No Iterations 6
smoothSolver:  Solving for k, Initial residual = 0.0242716, Final residual = 7.51103e-07, No Iterations 8
Uncorrected Ubar = 9.37365, pressure gradient = 15.6189
Rey = 281.115, uTau = 0.340836, nut+ = 0.614242, nuEff+ = 1.61424, y+ = 21.3023, u+ = 13.1965, k+ = 3.22914, epsilon+ = 0.100742, omega+ = 0.34664
ExecutionTime = 0.123975 s  ClockTime = 1 s

Time = 116s

DICPCG:  Solving for Ux, Initial residual = 0.00844751, Final residual = 3.27421e-07, No Iterations 2
DICPCG:  Solving for Uy, Initial residual = 0, Final residual = 0, No Iterations 0
smoothSolver:  Solving for epsilon, Initial residual = 0.00811836, Final residual = 5.59642e-07, No Iterations 6
smoothSolver:  Solving for k, Initial residual = 0.0231861, Final residual = 7.06884e-07, No Iterations 8
Uncorrected Ubar = 10.5972, pressure gradient = -14.1013
Rey = 248.722, uTau = 0.318149, nut+ = 0.589673, nuEff+ = 1.58967, y+ = 19.8843, u+ = 12.5084, k+ = 3.5687, epsilon+ = 0.143802, omega+ = 0.447726
ExecutionTime = 0.124861 s  ClockTime = 1 s

Time = 117s

DICPCG:  Solving for Ux, Initial residual = 0.00817942, Final residual = 8.90285e-07, No Iterations 2
DICPCG:  Solving for Uy, Initial residual = 0, Final residual = 0, No Iterations 0
smoothSolver:  Solving for epsilon, Initial residual = 0.00533448, Final residual = 5.23018e-07, No Iterations 6
smoothSolver:  Solving for k, Initial residual = 0.0229636, Final residual = 7.98907e-07, No Iterations 8
Uncorrected Ubar = 9.41717, pressure gradient = 15.0368
Rey = 282.155, uTau = 0.342252, nut+ = 0.621679, nuEff+ = 1.62168, y+ = 21.3908, u+ = 13.1905, k+ = 3.23893, epsilon+ = 0.101459, omega+ = 0.348053
ExecutionTime = 0.125742 s  ClockTime = 1 s

Time = 118s

DICPCG:  Solving for Ux, Initial residual = 0.00746397, Final residual = 3.4634e-07, No Iterations 2
DICPCG:  Solving for Uy, Initial residual = 0, Final residual = 0, No Iterations 0
smoothSolver:  Solving for epsilon, Initial residual = 0.00776096, Final residual = 6.12212e-07, No Iterations 6
smoothSolver:  Solving for k, Initial residual = 0.0217892, Final residual = 7.35145e-07, No Iterations 8
Uncorrected Ubar = 10.5553, pressure gradient = -13.4348
Rey = 252.147, uTau = 0.321257, nut+ = 0.598864, nuEff+ = 1.59886, y+ = 20.0786, u+ = 12.558, k+ = 3.55005, epsilon+ = 0.140685, omega+ = 0.440322
ExecutionTime = 0.12667 s  ClockTime = 1 s

Time = 119s

DICPCG:  Solving for Ux, Initial residual = 0.00735144, Final residual = 6.46336e-07, No Iterations 2
DICPCG:  Solving for Uy, Initial residual = 0, Final residual = 0, No Iterations 0
smoothSolver:  Solving for epsilon, Initial residual = 0.00561668, Final residual = 5.49931e-07, No Iterations 6
smoothSolver:  Solving for k, Initial residual = 0.0213121, Final residual = 8.32837e-07, No Iterations 8
Uncorrected Ubar = 9.45721, pressure gradient = 14.4132
Rey = 283.156, uTau = 0.343581, nut+ = 0.62852, nuEff+ = 1.62852, y+ = 21.4738, u+ = 13.1861, k+ = 3.2474, epsilon+ = 0.10205, omega+ = 0.349167
ExecutionTime = 0.127967 s  ClockTime = 1 s

Time = 120s

DICPCG:  Solving for Ux, Initial residual = 0.00663472, Final residual = 3.3449e-07, No Iterations 2
DICPCG:  Solving for Uy, Initial residual = 0, Final residual = 0, No Iterations 0
smoothSolver:  Solving for epsilon, Initial residual = 0.00712297, Final residual = 6.4591e-07, No Iterations 6
[...]
ExecutionTime = 1.04025 s  ClockTime = 2 s

Time = 971s

DICPCG:  Solving for Ux, Initial residual = 0.000249225, Final residual = 1.0961e-07, No Iterations 1
DICPCG:  Solving for Uy, Initial residual = 0, Final residual = 0, No Iterations 0
smoothSolver:  Solving for epsilon, Initial residual = 0.000321161, Final residual = 3.92808e-07, No Iterations 6
smoothSolver:  Solving for k, Initial residual = 0.0280846, Final residual = 4.48312e-07, No Iterations 10
Uncorrected Ubar = 10, pressure gradient = 4.52001
Rey = 403.045, uTau = 0.467168, nut+ = 1.11521, nuEff+ = 2.11521, y+ = 29.198, u+ = 13.8039, k+ = 3.3289, epsilon+ = 0.0833968, omega+ = 0.278359
ExecutionTime = 1.04113 s  ClockTime = 2 s

Time = 972s

DICPCG:  Solving for Ux, Initial residual = 0.000247907, Final residual = 1.09499e-07, No Iterations 1
DICPCG:  Solving for Uy, Initial residual = 0, Final residual = 0, No Iterations 0
smoothSolver:  Solving for epsilon, Initial residual = 0.000319964, Final residual = 3.9127e-07, No Iterations 6
smoothSolver:  Solving for k, Initial residual = 0.0282234, Final residual = 4.50521e-07, No Iterations 10
Uncorrected Ubar = 10, pressure gradient = 4.52515
Rey = 402.995, uTau = 0.467117, nut+ = 1.115, nuEff+ = 2.115, y+ = 29.1948, u+ = 13.8037, k+ = 3.32886, epsilon+ = 0.0834043, omega+ = 0.278388
ExecutionTime = 1.04198 s  ClockTime = 2 s

Time = 973s

DICPCG:  Solving for Ux, Initial residual = 0.000246592, Final residual = 1.0938e-07, No Iterations 1
DICPCG:  Solving for Uy, Initial residual = 0, Final residual = 0, No Iterations 0
smoothSolver:  Solving for epsilon, Initial residual = 0.00031877, Final residual = 3.89738e-07, No Iterations 6
smoothSolver:  Solving for k, Initial residual = 0.028362, Final residual = 4.52726e-07, No Iterations 10
Uncorrected Ubar = 10, pressure gradient = 4.53026
Rey = 402.945, uTau = 0.467065, nut+ = 1.1148, nuEff+ = 2.1148, y+ = 29.1916, u+ = 13.8035, k+ = 3.32882, epsilon+ = 0.0834119, omega+ = 0.278417
ExecutionTime = 1.04283 s  ClockTime = 2 s

Time = 974s

DICPCG:  Solving for Ux, Initial residual = 0.000245279, Final residual = 1.09251e-07, No Iterations 1
DICPCG:  Solving for Uy, Initial residual = 0, Final residual = 0, No Iterations 0
smoothSolver:  Solving for epsilon, Initial residual = 0.000317582, Final residual = 3.88211e-07, No Iterations 6
smoothSolver:  Solving for k, Initial residual = 0.0285028, Final residual = 4.54967e-07, No Iterations 10
Uncorrected Ubar = 10, pressure gradient = 4.53534
Rey = 402.894, uTau = 0.467013, nut+ = 1.1146, nuEff+ = 2.1146, y+ = 29.1883, u+ = 13.8033, k+ = 3.32877, epsilon+ = 0.0834195, omega+ = 0.278446
ExecutionTime = 1.04373 s  ClockTime = 2 s

Time = 975s

DICPCG:  Solving for Ux, Initial residual = 0.000243968, Final residual = 1.09112e-07, No Iterations 1
DICPCG:  Solving for Uy, Initial residual = 0, Final residual = 0, No Iterations 0
smoothSolver:  Solving for epsilon, Initial residual = 0.000316398, Final residual = 3.8669e-07, No Iterations 6
smoothSolver:  Solving for k, Initial residual = 0.0286459, Final residual = 4.57245e-07, No Iterations 10
Uncorrected Ubar = 10, pressure gradient = 4.54039
Rey = 402.844, uTau = 0.466962, nut+ = 1.11439, nuEff+ = 2.11439, y+ = 29.1851, u+ = 13.8031, k+ = 3.32873, epsilon+ = 0.0834271, omega+ = 0.278475
ExecutionTime = 1.04459 s  ClockTime = 2 s

Time = 976s

DICPCG:  Solving for Ux, Initial residual = 0.00024266, Final residual = 1.08964e-07, No Iterations 1
DICPCG:  Solving for Uy, Initial residual = 0, Final residual = 0, No Iterations 0
smoothSolver:  Solving for epsilon, Initial residual = 0.000315218, Final residual = 3.85174e-07, No Iterations 6
smoothSolver:  Solving for k, Initial residual = 0.0287914, Final residual = 4.59561e-07, No Iterations 10
Uncorrected Ubar = 10, pressure gradient = 4.54541
Rey = 402.794, uTau = 0.46691, nut+ = 1.11419, nuEff+ = 2.11419, y+ = 29.1819, u+ = 13.8029, k+ = 3.32869, epsilon+ = 0.0834347, omega+ = 0.278504
ExecutionTime = 1.04545 s  ClockTime = 2 s

Time = 977s

DICPCG:  Solving for Ux, Initial residual = 0.000241353, Final residual = 1.08819e-07, No Iterations 1
DICPCG:  Solving for Uy, Initial residual = 0, Final residual = 0, No Iterations 0
smoothSolver:  Solving for epsilon, Initial residual = 0.000314042, Final residual = 3.83664e-07, No Iterations 6
smoothSolver:  Solving for k, Initial residual = 0.0289336, Final residual = 4.61824e-07, No Iterations 10
Uncorrected Ubar = 10, pressure gradient = 4.5504
Rey = 402.743, uTau = 0.466858, nut+ = 1.11398, nuEff+ = 2.11398, y+ = 29.1786, u+ = 13.8027, k+ = 3.32864, epsilon+ = 0.0834423, omega+ = 0.278533
ExecutionTime = 1.04631 s  ClockTime = 2 s

Time = 978s

DICPCG:  Solving for Ux, Initial residual = 0.000240049, Final residual = 1.08682e-07, No Iterations 1
DICPCG:  Solving for Uy, Initial residual = 0, Final residual = 0, No Iterations 0
smoothSolver:  Solving for epsilon, Initial residual = 0.000312871, Final residual = 3.8216e-07, No Iterations 6
smoothSolver:  Solving for k, Initial residual = 0.0290733, Final residual = 4.64047e-07, No Iterations 10
Uncorrected Ubar = 10, pressure gradient = 4.55535
Rey = 402.693, uTau = 0.466807, nut+ = 1.11378, nuEff+ = 2.11378, y+ = 29.1754, u+ = 13.8025, k+ = 3.3286, epsilon+ = 0.08345, omega+ = 0.278562
ExecutionTime = 1.04716 s  ClockTime = 2 s

Time = 979s

DICPCG:  Solving for Ux, Initial residual = 0.000238747, Final residual = 1.08534e-07, No Iterations 1
DICPCG:  Solving for Uy, Initial residual = 0, Final residual = 0, No Iterations 0
smoothSolver:  Solving for epsilon, Initial residual = 0.000311705, Final residual = 3.80661e-07, No Iterations 6
smoothSolver:  Solving for k, Initial residual = 0.0292153, Final residual = 4.66307e-07, No Iterations 10
Uncorrected Ubar = 10, pressure gradient = 4.56028
Rey = 402.643, uTau = 0.466755, nut+ = 1.11358, nuEff+ = 2.11358, y+ = 29.1722, u+ = 13.8023, k+ = 3.32856, epsilon+ = 0.0834576, omega+ = 0.278591
ExecutionTime = 1.04817 s  ClockTime = 2 s

Time = 980s

DICPCG:  Solving for Ux, Initial residual = 0.000237447, Final residual = 1.08376e-07, No Iterations 1
DICPCG:  Solving for Uy, Initial residual = 0, Final residual = 0, No Iterations 0
smoothSolver:  Solving for epsilon, Initial residual = 0.000310542, Final residual = 3.79167e-07, No Iterations 6
smoothSolver:  Solving for k, Initial residual = 0.0293596, Final residual = 4.68604e-07, No Iterations 10
Uncorrected Ubar = 10, pressure gradient = 4.56518
Rey = 402.592, uTau = 0.466703, nut+ = 1.11337, nuEff+ = 2.11337, y+ = 29.169, u+ = 13.8021, k+ = 3.32852, epsilon+ = 0.0834652, omega+ = 0.27862
ExecutionTime = 1.0491 s  ClockTime = 2 s

Time = 981s

DICPCG:  Solving for Ux, Initial residual = 0.000236149, Final residual = 1.08207e-07, No Iterations 1
DICPCG:  Solving for Uy, Initial residual = 0, Final residual = 0, No Iterations 0
smoothSolver:  Solving for epsilon, Initial residual = 0.000309384, Final residual = 3.77679e-07, No Iterations 6
smoothSolver:  Solving for k, Initial residual = 0.0295063, Final residual = 4.70939e-07, No Iterations 10
Uncorrected Ubar = 10, pressure gradient = 4.57005
Rey = 402.542, uTau = 0.466652, nut+ = 1.11317, nuEff+ = 2.11317, y+ = 29.1657, u+ = 13.8019, k+ = 3.32848, epsilon+ = 0.0834729, omega+ = 0.278649
ExecutionTime = 1.0501 s  ClockTime = 2 s

Time = 982s

DICPCG:  Solving for Ux, Initial residual = 0.000234853, Final residual = 1.08026e-07, No Iterations 1
DICPCG:  Solving for Uy, Initial residual = 0, Final residual = 0, No Iterations 0
smoothSolver:  Solving for epsilon, Initial residual = 0.000308231, Final residual = 3.76197e-07, No Iterations 6
smoothSolver:  Solving for k, Initial residual = 0.0296555, Final residual = 4.73312e-07, No Iterations 10
Uncorrected Ubar = 10, pressure gradient = 4.57489
Rey = 402.492, uTau = 0.4666, nut+ = 1.11297, nuEff+ = 2.11297, y+ = 29.1625, u+ = 13.8017, k+ = 3.32844, epsilon+ = 0.0834805, omega+ = 0.278678
ExecutionTime = 1.05105 s  ClockTime = 2 s

Time = 983s

DICPCG:  Solving for Ux, Initial residual = 0.00023356, Final residual = 1.07835e-07, No Iterations 1
DICPCG:  Solving for Uy, Initial residual = 0, Final residual = 0, No Iterations 0
smoothSolver:  Solving for epsilon, Initial residual = 0.000307081, Final residual = 3.7472e-07, No Iterations 6
smoothSolver:  Solving for k, Initial residual = 0.0298072, Final residual = 4.75726e-07, No Iterations 10
Uncorrected Ubar = 10, pressure gradient = 4.5797
Rey = 402.442, uTau = 0.466549, nut+ = 1.11277, nuEff+ = 2.11277, y+ = 29.1593, u+ = 13.8015, k+ = 3.3284, epsilon+ = 0.0834882, omega+ = 0.278707
ExecutionTime = 1.05192 s  ClockTime = 2 s

Time = 984s

DICPCG:  Solving for Ux, Initial residual = 0.000232268, Final residual = 1.07632e-07, No Iterations 1
DICPCG:  Solving for Uy, Initial residual = 0, Final residual = 0, No Iterations 0
smoothSolver:  Solving for epsilon, Initial residual = 0.000305936, Final residual = 3.73249e-07, No Iterations 6
smoothSolver:  Solving for k, Initial residual = 0.0299614, Final residual = 4.7818e-07, No Iterations 10
Uncorrected Ubar = 10, pressure gradient = 4.58448
Rey = 402.391, uTau = 0.466497, nut+ = 1.11256, nuEff+ = 2.11256, y+ = 29.1561, u+ = 13.8013, k+ = 3.32835, epsilon+ = 0.0834958, omega+ = 0.278736
ExecutionTime = 1.05302 s  ClockTime = 2 s

Time = 985s

DICPCG:  Solving for Ux, Initial residual = 0.000230979, Final residual = 1.0746e-07, No Iterations 1
DICPCG:  Solving for Uy, Initial residual = 0, Final residual = 0, No Iterations 0
smoothSolver:  Solving for epsilon, Initial residual = 0.000304795, Final residual = 3.71783e-07, No Iterations 6
smoothSolver:  Solving for k, Initial residual = 0.0301134, Final residual = 4.80599e-07, No Iterations 10
Uncorrected Ubar = 10, pressure gradient = 4.58923
Rey = 402.341, uTau = 0.466446, nut+ = 1.11236, nuEff+ = 2.11236, y+ = 29.1529, u+ = 13.8011, k+ = 3.32831, epsilon+ = 0.0835035, omega+ = 0.278765
ExecutionTime = 1.0547 s  ClockTime = 2 s

Time = 986s

DICPCG:  Solving for Ux, Initial residual = 0.000229692, Final residual = 1.0733e-07, No Iterations 1
DICPCG:  Solving for Uy, Initial residual = 0, Final residual = 0, No Iterations 0
smoothSolver:  Solving for epsilon, Initial residual = 0.000303659, Final residual = 3.70322e-07, No Iterations 6
smoothSolver:  Solving for k, Initial residual = 0.0302606, Final residual = 4.82939e-07, No Iterations 10
Uncorrected Ubar = 10, pressure gradient = 4.59396
Rey = 402.291, uTau = 0.466395, nut+ = 1.11216, nuEff+ = 2.11216, y+ = 29.1497, u+ = 13.8009, k+ = 3.32827, epsilon+ = 0.0835112, omega+ = 0.278794
ExecutionTime = 1.05567 s  ClockTime = 2 s

Time = 987s

DICPCG:  Solving for Ux, Initial residual = 0.000228408, Final residual = 1.0719e-07, No Iterations 1
DICPCG:  Solving for Uy, Initial residual = 0, Final residual = 0, No Iterations 0
smoothSolver:  Solving for epsilon, Initial residual = 0.000302526, Final residual = 3.68867e-07, No Iterations 6
smoothSolver:  Solving for k, Initial residual = 0.0304102, Final residual = 4.85319e-07, No Iterations 10
Uncorrected Ubar = 10, pressure gradient = 4.59865
Rey = 402.241, uTau = 0.466343, nut+ = 1.11196, nuEff+ = 2.11196, y+ = 29.1464, u+ = 13.8007, k+ = 3.32823, epsilon+ = 0.0835189, omega+ = 0.278823
ExecutionTime = 1.05653 s  ClockTime = 2 s

Time = 988s

DICPCG:  Solving for Ux, Initial residual = 0.000227125, Final residual = 1.07039e-07, No Iterations 1
DICPCG:  Solving for Uy, Initial residual = 0, Final residual = 0, No Iterations 0
smoothSolver:  Solving for epsilon, Initial residual = 0.000301398, Final residual = 3.67417e-07, No Iterations 6
smoothSolver:  Solving for k, Initial residual = 0.0305623, Final residual = 4.87739e-07, No Iterations 10
Uncorrected Ubar = 10, pressure gradient = 4.60331
Rey = 402.191, uTau = 0.466292, nut+ = 1.11176, nuEff+ = 2.11176, y+ = 29.1432, u+ = 13.8005, k+ = 3.32819, epsilon+ = 0.0835266, omega+ = 0.278852
ExecutionTime = 1.05746 s  ClockTime = 2 s

Time = 989s

DICPCG:  Solving for Ux, Initial residual = 0.000225896, Final residual = 1.06876e-07, No Iterations 1
DICPCG:  Solving for Uy, Initial residual = 0, Final residual = 0, No Iterations 0
smoothSolver:  Solving for epsilon, Initial residual = 0.000300274, Final residual = 3.65972e-07, No Iterations 6
smoothSolver:  Solving for k, Initial residual = 0.0307169, Final residual = 4.90199e-07, No Iterations 10
Uncorrected Ubar = 10, pressure gradient = 4.60795
Rey = 402.14, uTau = 0.46624, nut+ = 1.11155, nuEff+ = 2.11155, y+ = 29.14, u+ = 13.8003, k+ = 3.32816, epsilon+ = 0.0835343, omega+ = 0.278881
ExecutionTime = 1.05834 s  ClockTime = 2 s

Time = 990s

DICPCG:  Solving for Ux, Initial residual = 0.000224681, Final residual = 1.06702e-07, No Iterations 1
DICPCG:  Solving for Uy, Initial residual = 0, Final residual = 0, No Iterations 0
smoothSolver:  Solving for epsilon, Initial residual = 0.000299154, Final residual = 3.64533e-07, No Iterations 6
smoothSolver:  Solving for k, Initial residual = 0.0308691, Final residual = 4.9262e-07, No Iterations 10
Uncorrected Ubar = 10, pressure gradient = 4.61255
Rey = 402.09, uTau = 0.466189, nut+ = 1.11135, nuEff+ = 2.11135, y+ = 29.1368, u+ = 13.8001, k+ = 3.32812, epsilon+ = 0.083542, omega+ = 0.27891
ExecutionTime = 1.05921 s  ClockTime = 2 s

Time = 991s

DICPCG:  Solving for Ux, Initial residual = 0.000223469, Final residual = 1.06517e-07, No Iterations 1
DICPCG:  Solving for Uy, Initial residual = 0, Final residual = 0, No Iterations 0
smoothSolver:  Solving for epsilon, Initial residual = 0.000298038, Final residual = 3.63099e-07, No Iterations 6
smoothSolver:  Solving for k, Initial residual = 0.0310159, Final residual = 4.94954e-07, No Iterations 10
Uncorrected Ubar = 10, pressure gradient = 4.61713
Rey = 402.04, uTau = 0.466138, nut+ = 1.11115, nuEff+ = 2.11115, y+ = 29.1336, u+ = 13.7999, k+ = 3.32808, epsilon+ = 0.0835497, omega+ = 0.278939
ExecutionTime = 1.0601 s  ClockTime = 2 s

Time = 992s

DICPCG:  Solving for Ux, Initial residual = 0.000222369, Final residual = 1.0632e-07, No Iterations 1
DICPCG:  Solving for Uy, Initial residual = 0, Final residual = 0, No Iterations 0
smoothSolver:  Solving for epsilon, Initial residual = 0.000296927, Final residual = 3.6167e-07, No Iterations 6
smoothSolver:  Solving for k, Initial residual = 0.0311651, Final residual = 4.97328e-07, No Iterations 10
Uncorrected Ubar = 10, pressure gradient = 4.62167
Rey = 401.99, uTau = 0.466087, nut+ = 1.11095, nuEff+ = 2.11095, y+ = 29.1304, u+ = 13.7997, k+ = 3.32804, epsilon+ = 0.0835574, omega+ = 0.278968
ExecutionTime = 1.06097 s  ClockTime = 2 s

Time = 993s

DICPCG:  Solving for Ux, Initial residual = 0.000221297, Final residual = 1.06112e-07, No Iterations 1
DICPCG:  Solving for Uy, Initial residual = 0, Final residual = 0, No Iterations 0
smoothSolver:  Solving for epsilon, Initial residual = 0.000295819, Final residual = 3.60246e-07, No Iterations 6
smoothSolver:  Solving for k, Initial residual = 0.0313169, Final residual = 4.99741e-07, No Iterations 10
Uncorrected Ubar = 10, pressure gradient = 4.62619
Rey = 401.94, uTau = 0.466035, nut+ = 1.11075, nuEff+ = 2.11075, y+ = 29.1272, u+ = 13.7995, k+ = 3.328, epsilon+ = 0.0835651, omega+ = 0.278997
ExecutionTime = 1.06181 s  ClockTime = 2 s

Time = 994s

DICPCG:  Solving for Ux, Initial residual = 0.000220226, Final residual = 1.05891e-07, No Iterations 1
DICPCG:  Solving for Uy, Initial residual = 0, Final residual = 0, No Iterations 0
smoothSolver:  Solving for epsilon, Initial residual = 0.000294716, Final residual = 3.58828e-07, No Iterations 6
smoothSolver:  Solving for k, Initial residual = 0.0314712, Final residual = 5.02195e-07, No Iterations 10
Uncorrected Ubar = 10, pressure gradient = 4.63068
Rey = 401.89, uTau = 0.465984, nut+ = 1.11055, nuEff+ = 2.11055, y+ = 29.124, u+ = 13.7993, k+ = 3.32796, epsilon+ = 0.0835729, omega+ = 0.279026
ExecutionTime = 1.06266 s  ClockTime = 2 s

Time = 995s

DICPCG:  Solving for Ux, Initial residual = 0.000219157, Final residual = 1.05659e-07, No Iterations 1
DICPCG:  Solving for Uy, Initial residual = 0, Final residual = 0, No Iterations 0
smoothSolver:  Solving for epsilon, Initial residual = 0.000293616, Final residual = 3.57415e-07, No Iterations 6
smoothSolver:  Solving for k, Initial residual = 0.0316196, Final residual = 5.04554e-07, No Iterations 10
Uncorrected Ubar = 10, pressure gradient = 4.63514
Rey = 401.84, uTau = 0.465933, nut+ = 1.11035, nuEff+ = 2.11035, y+ = 29.1208, u+ = 13.7991, k+ = 3.32792, epsilon+ = 0.0835806, omega+ = 0.279055
ExecutionTime = 1.06356 s  ClockTime = 2 s

Time = 996s

DICPCG:  Solving for Ux, Initial residual = 0.00021809, Final residual = 1.05415e-07, No Iterations 1
DICPCG:  Solving for Uy, Initial residual = 0, Final residual = 0, No Iterations 0
smoothSolver:  Solving for epsilon, Initial residual = 0.000292521, Final residual = 3.56007e-07, No Iterations 6
smoothSolver:  Solving for k, Initial residual = 0.0317659, Final residual = 5.06881e-07, No Iterations 10
Uncorrected Ubar = 10, pressure gradient = 4.63957
Rey = 401.79, uTau = 0.465882, nut+ = 1.11015, nuEff+ = 2.11015, y+ = 29.1176, u+ = 13.7989, k+ = 3.32789, epsilon+ = 0.0835883, omega+ = 0.279084
ExecutionTime = 1.06442 s  ClockTime = 2 s

Time = 997s

DICPCG:  Solving for Ux, Initial residual = 0.000217024, Final residual = 1.05159e-07, No Iterations 1
DICPCG:  Solving for Uy, Initial residual = 0, Final residual = 0, No Iterations 0
smoothSolver:  Solving for epsilon, Initial residual = 0.00029143, Final residual = 3.54604e-07, No Iterations 6
smoothSolver:  Solving for k, Initial residual = 0.0319054, Final residual = 5.09098e-07, No Iterations 10
Uncorrected Ubar = 10, pressure gradient = 4.64398
Rey = 401.74, uTau = 0.465831, nut+ = 1.10995, nuEff+ = 2.10995, y+ = 29.1144, u+ = 13.7987, k+ = 3.32785, epsilon+ = 0.0835961, omega+ = 0.279113
ExecutionTime = 1.06527 s  ClockTime = 2 s

Time = 998s

DICPCG:  Solving for Ux, Initial residual = 0.000215959, Final residual = 1.0489e-07, No Iterations 1
DICPCG:  Solving for Uy, Initial residual = 0, Final residual = 0, No Iterations 0
smoothSolver:  Solving for epsilon, Initial residual = 0.000290343, Final residual = 3.53207e-07, No Iterations 6
smoothSolver:  Solving for k, Initial residual = 0.0320417, Final residual = 5.11263e-07, No Iterations 10
Uncorrected Ubar = 10, pressure gradient = 4.64835
Rey = 401.69, uTau = 0.465779, nut+ = 1.10975, nuEff+ = 2.10975, y+ = 29.1112, u+ = 13.7984, k+ = 3.32781, epsilon+ = 0.0836038, omega+ = 0.279142
ExecutionTime = 1.06611 s  ClockTime = 2 s

Time = 999s

DICPCG:  Solving for Ux, Initial residual = 0.000214897, Final residual = 1.04705e-07, No Iterations 1
DICPCG:  Solving for Uy, Initial residual = 0, Final residual = 0, No Iterations 0
smoothSolver:  Solving for epsilon, Initial residual = 0.00028926, Final residual = 3.51814e-07, No Iterations 6
smoothSolver:  Solving for k, Initial residual = 0.0321801, Final residual = 5.13464e-07, No Iterations 10
Uncorrected Ubar = 10, pressure gradient = 4.6527
Rey = 401.64, uTau = 0.465728, nut+ = 1.10955, nuEff+ = 2.10955, y+ = 29.108, u+ = 13.7982, k+ = 3.32778, epsilon+ = 0.0836116, omega+ = 0.279171
ExecutionTime = 1.06697 s  ClockTime = 2 s

Time = 1000s

DICPCG:  Solving for Ux, Initial residual = 0.000213835, Final residual = 1.0452e-07, No Iterations 1
DICPCG:  Solving for Uy, Initial residual = 0, Final residual = 0, No Iterations 0
smoothSolver:  Solving for epsilon, Initial residual = 0.00028818, Final residual = 3.50427e-07, No Iterations 6
smoothSolver:  Solving for k, Initial residual = 0.0323208, Final residual = 5.157e-07, No Iterations 10
Uncorrected Ubar = 10, pressure gradient = 4.65701
Rey = 401.59, uTau = 0.465677, nut+ = 1.10935, nuEff+ = 2.10935, y+ = 29.1048, u+ = 13.798, k+ = 3.32774, epsilon+ = 0.0836194, omega+ = 0.2792
ExecutionTime = 1.07093 s  ClockTime = 2 s

End

