/*---------------------------------------------------------------------------*\
  =========                 |
  \\      /  F ield         | OpenFOAM: The Open Source CFD Toolbox
   \\    /   O peration     | Website:  https://openfoam.org
    \\  /    A nd           | Version:  12
     \\/     M anipulation  |
\*---------------------------------------------------------------------------*/
Build  : 12-cc05c1b03c38
Exec   : boundaryFoam
Date   : Oct 04 2024
Time   : 23:19:53
Host   : "DESKTOP-KBPC6IC"
PID    : 26390
I/O    : uncollated
Case   : /home/as/openfoam/OpenFOAM-12/test/boundaryLayer/boundaryWallFunctionsProfile
nProcs : 1
sigFpe : Enabling floating point exception trapping (FOAM_SIGFPE).
fileModificationChecking : Monitoring run-time modified files using timeStampMaster (fileModificationSkew 10)
allowSystemOperations : Allowing user-supplied system call operations

// * * * * * * * * * * * * * * * * * * * * * * * * * * * * * * * * * * * * * //
Create time

Create mesh for time = 0

Reading field U

Creating face flux

Selecting viscosity model constant
Selecting turbulence model type RAS
Selecting RAS turbulence model kEpsilon
RAS
{
    model           kEpsilon;
    turbulence      on;
    printCoeffs     on;
    Cmu             0.09;
    C1              1.44;
    C2              1.92;
    C3              0;
    sigmak          1;
    sigmaEps        1.3;
}

No fvModels present
No fvConstraints present
Generating wall data for patch: lowerWall
    Height to first cell centre y0 = 0.000625

Starting time loop

Time = 1s

DICPCG:  Solving for Ux, Initial residual = 1, Final residual = 1.09447e-08, No Iterations 4
DICPCG:  Solving for Uy, Initial residual = 0, Final residual = 0, No Iterations 0
smoothSolver:  Solving for epsilon, Initial residual = 0.983173, Final residual = 3.4389e-08, No Iterations 3
smoothSolver:  Solving for k, Initial residual = 0.999999, Final residual = 3.38448e-07, No Iterations 4
Uncorrected Ubar = 0.988503, pressure gradient = 24.7092
Rey = 6044.11, uTau = 0.12439, nut+ = 0, nuEff+ = 1, y+ = 77.7439, u+ = 77.7439, k+ = 2.7817e-08, epsilon+ = 2.13858e-11, omega+ = 0.00854227
ExecutionTime = 0.007091 s  ClockTime = 0 s

Time = 2s

DICPCG:  Solving for Ux, Initial residual = 0.998752, Final residual = 1.35076e-07, No Iterations 3
DICPCG:  Solving for Uy, Initial residual = 0, Final residual = 0, No Iterations 0
smoothSolver:  Solving for epsilon, Initial residual = 0.995902, Final residual = 2.55591e-09, No Iterations 3
smoothSolver:  Solving for k, Initial residual = 0.310638, Final residual = 2.75372e-07, No Iterations 2
Uncorrected Ubar = 27.7427, pressure gradient = -23.9404
Rey = 1535.99, uTau = 0.0627067, nut+ = 0, nuEff+ = 1, y+ = 39.1917, u+ = 39.1917, k+ = 8.66896e-08, epsilon+ = 1.42527e-10, omega+ = 0.0182678
ExecutionTime = 0.007976 s  ClockTime = 0 s

Time = 3s

DICPCG:  Solving for Ux, Initial residual = 0.91044, Final residual = 1.41788e-07, No Iterations 3
DICPCG:  Solving for Uy, Initial residual = 0, Final residual = 0, No Iterations 0
smoothSolver:  Solving for epsilon, Initial residual = 0.571708, Final residual = 1.05361e-11, No Iterations 2
smoothSolver:  Solving for k, Initial residual = 0.655113, Final residual = 8.6557e-07, No Iterations 2
Uncorrected Ubar = -7.31691, pressure gradient = 23.5415
Rey = 5240.73, uTau = 0.115829, nut+ = 0, nuEff+ = 1, y+ = 72.3929, u+ = 72.3929, k+ = 1.24055e-08, epsilon+ = 9.69617e-12, omega+ = 0.00868449
ExecutionTime = 0.008788 s  ClockTime = 0 s

Time = 4s

DICPCG:  Solving for Ux, Initial residual = 0.984613, Final residual = 1.32823e-07, No Iterations 3
DICPCG:  Solving for Uy, Initial residual = 0, Final residual = 0, No Iterations 0
smoothSolver:  Solving for epsilon, Initial residual = 0.565762, Final residual = 2.05405e-11, No Iterations 2
smoothSolver:  Solving for k, Initial residual = 0.672349, Final residual = 8.38206e-08, No Iterations 3
Uncorrected Ubar = 26.9163, pressure gradient = -22.842
Rey = 1856.22, uTau = 0.0689342, nut+ = 0, nuEff+ = 1, y+ = 43.0839, u+ = 43.0839, k+ = 1.48821e-08, epsilon+ = 3.77378e-11, omega+ = 0.0281755
ExecutionTime = 0.009603 s  ClockTime = 0 s

Time = 5s

DICPCG:  Solving for Ux, Initial residual = 0.898475, Final residual = 1.3768e-07, No Iterations 3
DICPCG:  Solving for Uy, Initial residual = 0, Final residual = 0, No Iterations 0
smoothSolver:  Solving for epsilon, Initial residual = 0.572332, Final residual = 3.5613e-11, No Iterations 2
smoothSolver:  Solving for k, Initial residual = 0.824141, Final residual = 2.3027e-07, No Iterations 3
Uncorrected Ubar = -6.51357, pressure gradient = 22.4371
Rey = 4707.86, uTau = 0.109782, nut+ = 0, nuEff+ = 1, y+ = 68.6139, u+ = 68.6139, k+ = 2.28292e-09, epsilon+ = 2.49273e-12, omega+ = 0.0121323
ExecutionTime = 0.010412 s  ClockTime = 0 s

Time = 6s

DICPCG:  Solving for Ux, Initial residual = 0.973089, Final residual = 1.3437e-07, No Iterations 3
DICPCG:  Solving for Uy, Initial residual = 0, Final residual = 0, No Iterations 0
smoothSolver:  Solving for epsilon, Initial residual = 0.568287, Final residual = 1.32795e-10, No Iterations 2
smoothSolver:  Solving for k, Initial residual = 0.494487, Final residual = 2.91903e-07, No Iterations 3
Uncorrected Ubar = 26.1293, pressure gradient = -21.7883
Rey = 1983.86, uTau = 0.0712648, nut+ = 0, nuEff+ = 1, y+ = 44.5405, u+ = 44.5405, k+ = 2.02647e-09, epsilon+ = 5.46164e-12, omega+ = 0.0299462
ExecutionTime = 0.011216 s  ClockTime = 0 s

Time = 7s

DICPCG:  Solving for Ux, Initial residual = 0.88711, Final residual = 1.336e-07, No Iterations 3
DICPCG:  Solving for Uy, Initial residual = 0, Final residual = 0, No Iterations 0
smoothSolver:  Solving for epsilon, Initial residual = 0.585342, Final residual = 3.49123e-10, No Iterations 2
smoothSolver:  Solving for k, Initial residual = 0.145267, Final residual = 1.27179e-07, No Iterations 3
Uncorrected Ubar = -5.74687, pressure gradient = 21.3886
Rey = 4329.81, uTau = 0.105282, nut+ = 0, nuEff+ = 1, y+ = 65.8013, u+ = 65.8013, k+ = 3.34244e-10, epsilon+ = 4.28886e-13, omega+ = 0.0142573
ExecutionTime = 0.012017 s  ClockTime = 0 s

Time = 8s

DICPCG:  Solving for Ux, Initial residual = 0.962749, Final residual = 1.35037e-07, No Iterations 3
DICPCG:  Solving for Uy, Initial residual = 0, Final residual = 0, No Iterations 0
smoothSolver:  Solving for epsilon, Initial residual = 0.628789, Final residual = 1.79818e-09, No Iterations 2
smoothSolver:  Solving for k, Initial residual = 0.0982682, Final residual = 4.37338e-07, No Iterations 2
Uncorrected Ubar = 25.3792, pressure gradient = -20.7802
Rey = 2011.44, uTau = 0.0717586, nut+ = 0, nuEff+ = 1, y+ = 44.8491, u+ = 44.8491, k+ = 2.54606e-10, epsilon+ = 7.15397e-13, omega+ = 0.0312202
ExecutionTime = 0.012862 s  ClockTime = 0 s

Time = 9s

DICPCG:  Solving for Ux, Initial residual = 0.87695, Final residual = 1.30646e-07, No Iterations 3
DICPCG:  Solving for Uy, Initial residual = 0, Final residual = 0, No Iterations 0
smoothSolver:  Solving for epsilon, Initial residual = 0.716446, Final residual = 6.47924e-09, No Iterations 2
smoothSolver:  Solving for k, Initial residual = 0.0864933, Final residual = 2.12739e-07, No Iterations 2
Uncorrected Ubar = -5.01549, pressure gradient = 20.3913
Rey = 4037.65, uTau = 0.101668, nut+ = 0, nuEff+ = 1, y+ = 63.5425, u+ = 63.5425, k+ = 4.39025e-11, epsilon+ = 6.28275e-14, omega+ = 0.0159008
ExecutionTime = 0.01368 s  ClockTime = 0 s

Time = 10s

DICPCG:  Solving for Ux, Initial residual = 0.953194, Final residual = 1.34895e-07, No Iterations 3
DICPCG:  Solving for Uy, Initial residual = 0, Final residual = 0, No Iterations 0
smoothSolver:  Solving for epsilon, Initial residual = 0.22935, Final residual = 7.47315e-09, No Iterations 2
smoothSolver:  Solving for k, Initial residual = 0.0933654, Final residual = 1.03511e-07, No Iterations 2
Uncorrected Ubar = 24.6643, pressure gradient = -19.8172
Rey = 1987.62, uTau = 0.0713323, nut+ = 0, nuEff+ = 1, y+ = 44.5827, u+ = 44.5827, k+ = 3.05887e-11, epsilon+ = 8.97392e-14, omega+ = 0.0325971
ExecutionTime = 0.014488 s  ClockTime = 0 s

Time = 11s

DICPCG:  Solving for Ux, Initial residual = 0.867279, Final residual = 1.28379e-07, No Iterations 3
DICPCG:  Solving for Uy, Initial residual = 0, Final residual = 0, No Iterations 0
smoothSolver:  Solving for epsilon, Initial residual = 0.0748778, Final residual = 4.46746e-09, No Iterations 2
smoothSolver:  Solving for k, Initial residual = 0.0932488, Final residual = 6.1191e-08, No Iterations 2
Uncorrected Ubar = -4.31793, pressure gradient = 19.4416
Rey = 3796.37, uTau = 0.0985835, nut+ = 0, nuEff+ = 1, y+ = 61.6147, u+ = 61.6147, k+ = 5.41279e-12, epsilon+ = 8.43697e-15, omega+ = 0.017319
ExecutionTime = 0.015339 s  ClockTime = 0 s

Time = 12s

DICPCG:  Solving for Ux, Initial residual = 0.941103, Final residual = 1.33881e-07, No Iterations 3
DICPCG:  Solving for Uy, Initial residual = 0, Final residual = 0, No Iterations 0
smoothSolver:  Solving for epsilon, Initial residual = 0.0683997, Final residual = 4.60672e-09, No Iterations 2
smoothSolver:  Solving for k, Initial residual = 0.101788, Final residual = 3.78126e-08, No Iterations 2
Uncorrected Ubar = 23.9826, pressure gradient = -18.8979
Rey = 1936.68, uTau = 0.0704123, nut+ = 0, nuEff+ = 1, y+ = 44.0077, u+ = 44.0077, k+ = 3.56762e-12, epsilon+ = 1.09573e-14, omega+ = 0.0341259
ExecutionTime = 0.016157 s  ClockTime = 0 s

Time = 13s

DICPCG:  Solving for Ux, Initial residual = 0.858012, Final residual = 1.26509e-07, No Iterations 3
DICPCG:  Solving for Uy, Initial residual = 0, Final residual = 0, No Iterations 0
smoothSolver:  Solving for epsilon, Initial residual = 0.0578628, Final residual = 3.78908e-09, No Iterations 2
smoothSolver:  Solving for k, Initial residual = 0.102049, Final residual = 2.75731e-08, No Iterations 2
Uncorrected Ubar = -3.6527, pressure gradient = 18.537
Rey = 3588, uTau = 0.0958399, nut+ = 0, nuEff+ = 1, y+ = 59.8999, u+ = 59.8999, k+ = 6.40973e-13, epsilon+ = 1.0734e-15, omega+ = 0.0186071
ExecutionTime = 0.016966 s  ClockTime = 0 s

Time = 14s

DICPCG:  Solving for Ux, Initial residual = 0.928368, Final residual = 1.32498e-07, No Iterations 3
DICPCG:  Solving for Uy, Initial residual = 0, Final residual = 0, No Iterations 0
smoothSolver:  Solving for epsilon, Initial residual = 0.0690047, Final residual = 3.95136e-09, No Iterations 2
smoothSolver:  Solving for k, Initial residual = 0.101941, Final residual = 1.94078e-08, No Iterations 2
Uncorrected Ubar = 23.3328, pressure gradient = -18.0206
Rey = 1871.16, uTau = 0.0692111, nut+ = 0, nuEff+ = 1, y+ = 43.2569, u+ = 43.2569, k+ = 4.08988e-13, epsilon+ = 1.31371e-15, omega+ = 0.03569
ExecutionTime = 0.017768 s  ClockTime = 0 s

Time = 15s

DICPCG:  Solving for Ux, Initial residual = 0.848695, Final residual = 1.24816e-07, No Iterations 3
DICPCG:  Solving for Uy, Initial residual = 0, Final residual = 0, No Iterations 0
smoothSolver:  Solving for epsilon, Initial residual = 0.0597961, Final residual = 3.24446e-09, No Iterations 2
smoothSolver:  Solving for k, Initial residual = 0.107194, Final residual = 1.73705e-08, No Iterations 2
Uncorrected Ubar = -3.01834, pressure gradient = 17.6749
Rey = 3402.75, uTau = 0.0933329, nut+ = 0, nuEff+ = 1, y+ = 58.3331, u+ = 58.3331, k+ = 7.52789e-14, epsilon+ = 1.32188e-16, omega+ = 0.0195109
ExecutionTime = 0.018636 s  ClockTime = 0 s

Time = 16s

DICPCG:  Solving for Ux, Initial residual = 0.915579, Final residual = 1.30955e-07, No Iterations 3
DICPCG:  Solving for Uy, Initial residual = 0, Final residual = 0, No Iterations 0
smoothSolver:  Solving for epsilon, Initial residual = 0.078392, Final residual = 3.81485e-09, No Iterations 2
smoothSolver:  Solving for k, Initial residual = 0.110626, Final residual = 1.44859e-08, No Iterations 2
Uncorrected Ubar = 22.7131, pressure gradient = -17.1837
Rey = 1797.9, uTau = 0.0678426, nut+ = 0, nuEff+ = 1, y+ = 42.4016, u+ = 42.4016, k+ = 5.14262e-14, epsilon+ = 1.58491e-16, omega+ = 0.0342434
ExecutionTime = 0.01963 s  ClockTime = 0 s

Time = 17s

DICPCG:  Solving for Ux, Initial residual = 0.83957, Final residual = 1.23258e-07, No Iterations 3
DICPCG:  Solving for Uy, Initial residual = 0, Final residual = 0, No Iterations 0
smoothSolver:  Solving for epsilon, Initial residual = 0.0905744, Final residual = 4.24866e-09, No Iterations 2
smoothSolver:  Solving for k, Initial residual = 0.127028, Final residual = 1.54423e-08, No Iterations 2
bounding k, min: 1.33121e-16 max: 3.92332e-08 average: 2.03247e-09
Uncorrected Ubar = -2.41343, pressure gradient = 16.8532
Rey = 3234.88, uTau = 0.0910017, nut+ = 0, nuEff+ = 1, y+ = 56.876, u+ = 56.876, k+ = 2.68128e-14, epsilon+ = 1.7671e-17, omega+ = 0.0073228
ExecutionTime = 0.021247 s  ClockTime = 0 s

Time = 18s

DICPCG:  Solving for Ux, Initial residual = 0.902885, Final residual = 1.29337e-07, No Iterations 3
DICPCG:  Solving for Uy, Initial residual = 0, Final residual = 0, No Iterations 0
smoothSolver:  Solving for epsilon, Initial residual = 0.153803, Final residual = 6.64575e-09, No Iterations 2
smoothSolver:  Solving for k, Initial residual = 0.125283, Final residual = 1.32417e-08, No Iterations 2
bounding k, min: 1.98508e-16 max: 5.27463e-08 average: 2.73703e-09
Uncorrected Ubar = 22.1223, pressure gradient = -16.3853
Rey = 1720.8, uTau = 0.0663721, nut+ = 0, nuEff+ = 1, y+ = 41.4826, u+ = 41.4826, k+ = 5.04044e-14, epsilon+ = 5.85824e-17, omega+ = 0.0129139
ExecutionTime = 0.022154 s  ClockTime = 0 s

Time = 19s

DICPCG:  Solving for Ux, Initial residual = 0.830289, Final residual = 1.2174e-07, No Iterations 3
DICPCG:  Solving for Uy, Initial residual = 0, Final residual = 0, No Iterations 0
smoothSolver:  Solving for epsilon, Initial residual = 0.132527, Final residual = 5.58844e-09, No Iterations 2
smoothSolver:  Solving for k, Initial residual = 0.140525, Final residual = 1.43957e-08, No Iterations 2
Uncorrected Ubar = -1.8366, pressure gradient = 16.07
Rey = 3080.83, uTau = 0.0888083, nut+ = 0, nuEff+ = 1, y+ = 55.5052, u+ = 55.5052, k+ = 6.01729e-14, epsilon+ = 1.82766e-17, omega+ = 0.00337483
ExecutionTime = 0.022966 s  ClockTime = 0 s

Time = 20s

DICPCG:  Solving for Ux, Initial residual = 0.890263, Final residual = 1.27673e-07, No Iterations 3
DICPCG:  Solving for Uy, Initial residual = 0, Final residual = 0, No Iterations 0
smoothSolver:  Solving for epsilon, Initial residual = 0.164494, Final residual = 6.51696e-09, No Iterations 2
smoothSolver:  Solving for k, Initial residual = 0.097983, Final residual = 9.07576e-09, No Iterations 2
Uncorrected Ubar = 21.5589, pressure gradient = -15.6238
Rey = 1642.25, uTau = 0.0648395, nut+ = 0, nuEff+ = 1, y+ = 40.5247, u+ = 40.5247, k+ = 1.74006e-13, epsilon+ = 1.37473e-16, omega+ = 0.00877835
ExecutionTime = 0.023771 s  ClockTime = 0 s

Time = 21s

DICPCG:  Solving for Ux, Initial residual = 0.820831, Final residual = 1.20237e-07, No Iterations 3
DICPCG:  Solving for Uy, Initial residual = 0, Final residual = 0, No Iterations 0
smoothSolver:  Solving for epsilon, Initial residual = 0.100543, Final residual = 3.91932e-09, No Iterations 2
smoothSolver:  Solving for k, Initial residual = 0.132774, Final residual = 1.2182e-08, No Iterations 2
Uncorrected Ubar = -1.28657, pressure gradient = 15.3233
Rey = 2938.19, uTau = 0.0867282, nut+ = 0, nuEff+ = 1, y+ = 54.2051, u+ = 54.2051, k+ = 9.63798e-14, epsilon+ = 6.62022e-17, omega+ = 0.0076321
ExecutionTime = 0.024624 s  ClockTime = 0 s

Time = 22s

DICPCG:  Solving for Ux, Initial residual = 0.877493, Final residual = 1.25952e-07, No Iterations 3
DICPCG:  Solving for Uy, Initial residual = 0, Final residual = 0, No Iterations 0
smoothSolver:  Solving for epsilon, Initial residual = 0.14212, Final residual = 5.2823e-09, No Iterations 2
smoothSolver:  Solving for k, Initial residual = 0.131952, Final residual = 1.11986e-08, No Iterations 2
Uncorrected Ubar = 21.0217, pressure gradient = -14.8976
Rey = 1563.71, uTau = 0.0632701, nut+ = 0, nuEff+ = 1, y+ = 39.5438, u+ = 39.5438, k+ = 2.95894e-13, epsilon+ = 2.31623e-16, omega+ = 0.00869766
ExecutionTime = 0.025558 s  ClockTime = 0 s

Time = 23s

DICPCG:  Solving for Ux, Initial residual = 0.811344, Final residual = 1.18758e-07, No Iterations 3
DICPCG:  Solving for Uy, Initial residual = 0, Final residual = 0, No Iterations 0
smoothSolver:  Solving for epsilon, Initial residual = 0.133551, Final residual = 4.91087e-09, No Iterations 2
smoothSolver:  Solving for k, Initial residual = 0.141819, Final residual = 1.20634e-08, No Iterations 2
Uncorrected Ubar = -0.762072, pressure gradient = 14.6115
Rey = 2805.3, uTau = 0.0847441, nut+ = 0, nuEff+ = 1, y+ = 52.9651, u+ = 52.9651, k+ = 3.82212e-13, epsilon+ = 1.17589e-16, omega+ = 0.00341837
ExecutionTime = 0.0264 s  ClockTime = 0 s

Time = 24s

DICPCG:  Solving for Ux, Initial residual = 0.864497, Final residual = 1.24173e-07, No Iterations 3
DICPCG:  Solving for Uy, Initial residual = 0, Final residual = 0, No Iterations 0
smoothSolver:  Solving for epsilon, Initial residual = 0.158471, Final residual = 5.61924e-09, No Iterations 2
smoothSolver:  Solving for k, Initial residual = 0.104521, Final residual = 8.3449e-09, No Iterations 2
Uncorrected Ubar = 20.5095, pressure gradient = -14.205
Rey = 1486.13, uTau = 0.0616806, nut+ = 0, nuEff+ = 1, y+ = 38.5504, u+ = 38.5504, k+ = 1.14677e-12, epsilon+ = 9.70955e-16, omega+ = 0.00940765
ExecutionTime = 0.027204 s  ClockTime = 0 s

Time = 25s

DICPCG:  Solving for Ux, Initial residual = 0.801794, Final residual = 1.17288e-07, No Iterations 3
DICPCG:  Solving for Uy, Initial residual = 0, Final residual = 0, No Iterations 0
smoothSolver:  Solving for epsilon, Initial residual = 0.105731, Final residual = 3.72206e-09, No Iterations 2
smoothSolver:  Solving for k, Initial residual = 0.13521, Final residual = 1.08945e-08, No Iterations 2
Uncorrected Ubar = -0.261928, pressure gradient = 13.9328
Rey = 2680.9, uTau = 0.0828439, nut+ = 0, nuEff+ = 1, y+ = 51.7775, u+ = 51.7775, k+ = 5.90873e-13, epsilon+ = 4.74242e-16, omega+ = 0.00891792
ExecutionTime = 0.02801 s  ClockTime = 0 s

Time = 26s

DICPCG:  Solving for Ux, Initial residual = 0.851426, Final residual = 1.22366e-07, No Iterations 3
DICPCG:  Solving for Uy, Initial residual = 0, Final residual = 0, No Iterations 0
smoothSolver:  Solving for epsilon, Initial residual = 0.139986, Final residual = 4.79538e-09, No Iterations 2
smoothSolver:  Solving for k, Initial residual = 0.133584, Final residual = 1.02068e-08, No Iterations 2
Uncorrected Ubar = 20.021, pressure gradient = -13.5445
Rey = 1410.11, uTau = 0.0600823, nut+ = 0, nuEff+ = 1, y+ = 37.5515, u+ = 37.5515, k+ = 1.69841e-12, epsilon+ = 1.5933e-15, omega+ = 0.0104235
ExecutionTime = 0.028907 s  ClockTime = 0 s

Time = 27s

DICPCG:  Solving for Ux, Initial residual = 0.791796, Final residual = 1.15767e-07, No Iterations 3
DICPCG:  Solving for Uy, Initial residual = 0, Final residual = 0, No Iterations 0
smoothSolver:  Solving for epsilon, Initial residual = 0.132893, Final residual = 4.52911e-09, No Iterations 2
smoothSolver:  Solving for k, Initial residual = 0.142184, Final residual = 1.10105e-08, No Iterations 2
Uncorrected Ubar = 0.215008, pressure gradient = 13.2858
Rey = 2564.06, uTau = 0.0810184, nut+ = 0, nuEff+ = 1, y+ = 50.6365, u+ = 50.6365, k+ = 1.9786e-12, epsilon+ = 7.28567e-16, omega+ = 0.00409137
ExecutionTime = 0.029726 s  ClockTime = 0 s

Time = 28s

DICPCG:  Solving for Ux, Initial residual = 0.838265, Final residual = 1.20533e-07, No Iterations 3
DICPCG:  Solving for Uy, Initial residual = 0, Final residual = 0, No Iterations 0
smoothSolver:  Solving for epsilon, Initial residual = 0.154563, Final residual = 5.16485e-09, No Iterations 2
smoothSolver:  Solving for k, Initial residual = 0.10862, Final residual = 8.03831e-09, No Iterations 2
Uncorrected Ubar = 19.5552, pressure gradient = -12.9146
Rey = 1336.05, uTau = 0.0584831, nut+ = 0, nuEff+ = 1, y+ = 36.552, u+ = 36.552, k+ = 6.00494e-12, epsilon+ = 5.68426e-15, omega+ = 0.0105177
ExecutionTime = 0.03053 s  ClockTime = 0 s

Time = 29s

DICPCG:  Solving for Ux, Initial residual = 0.781665, Final residual = 1.14237e-07, No Iterations 3
DICPCG:  Solving for Uy, Initial residual = 0, Final residual = 0, No Iterations 0
smoothSolver:  Solving for epsilon, Initial residual = 0.108844, Final residual = 3.62125e-09, No Iterations 2
smoothSolver:  Solving for k, Initial residual = 0.136448, Final residual = 1.02614e-08, No Iterations 2
Uncorrected Ubar = 0.669833, pressure gradient = 12.6689
Rey = 2454, uTau = 0.0792606, nut+ = 0, nuEff+ = 1, y+ = 49.5379, u+ = 49.5379, k+ = 2.98941e-12, epsilon+ = 2.66447e-15, omega+ = 0.00990335
ExecutionTime = 0.031345 s  ClockTime = 0 s

Time = 30s

DICPCG:  Solving for Ux, Initial residual = 0.825002, Final residual = 1.18674e-07, No Iterations 3
DICPCG:  Solving for Uy, Initial residual = 0, Final residual = 0, No Iterations 0
smoothSolver:  Solving for epsilon, Initial residual = 0.138855, Final residual = 4.56083e-09, No Iterations 2
smoothSolver:  Solving for k, Initial residual = 0.134503, Final residual = 9.72697e-09, No Iterations 2
Uncorrected Ubar = 19.111, pressure gradient = -12.3139
Rey = 1264.17, uTau = 0.0568883, nut+ = 0, nuEff+ = 1, y+ = 35.5552, u+ = 35.5552, k+ = 8.5514e-12, epsilon+ = 9.18073e-15, omega+ = 0.0119288
ExecutionTime = 0.0322 s  ClockTime = 0 s

Time = 31s

DICPCG:  Solving for Ux, Initial residual = 0.771394, Final residual = 1.12697e-07, No Iterations 3
DICPCG:  Solving for Uy, Initial residual = 0, Final residual = 0, No Iterations 0
smoothSolver:  Solving for epsilon, Initial residual = 0.132895, Final residual = 4.34441e-09, No Iterations 2
smoothSolver:  Solving for k, Initial residual = 0.142292, Final residual = 1.04743e-08, No Iterations 2
Uncorrected Ubar = 1.10361, pressure gradient = 12.0807
Rey = 2350.11, uTau = 0.0775647, nut+ = 0, nuEff+ = 1, y+ = 48.4779, u+ = 48.4779, k+ = 9.27071e-12, epsilon+ = 3.9147e-15, omega+ = 0.00469183
ExecutionTime = 0.033062 s  ClockTime = 0 s

Time = 32s

DICPCG:  Solving for Ux, Initial residual = 0.811352, Final residual = 1.16753e-07, No Iterations 3
DICPCG:  Solving for Uy, Initial residual = 0, Final residual = 0, No Iterations 0
smoothSolver:  Solving for epsilon, Initial residual = 0.15166, Final residual = 4.92796e-09, No Iterations 2
smoothSolver:  Solving for k, Initial residual = 0.111971, Final residual = 7.96886e-09, No Iterations 2
Uncorrected Ubar = 18.6873, pressure gradient = -11.7411
Rey = 1194.63, uTau = 0.0553015, nut+ = 0, nuEff+ = 1, y+ = 34.5634, u+ = 34.5634, k+ = 2.87315e-11, epsilon+ = 3.05326e-14, omega+ = 0.0118077
ExecutionTime = 0.033885 s  ClockTime = 0 s

Time = 33s

DICPCG:  Solving for Ux, Initial residual = 0.760969, Final residual = 1.11141e-07, No Iterations 3
DICPCG:  Solving for Uy, Initial residual = 0, Final residual = 0, No Iterations 0
smoothSolver:  Solving for epsilon, Initial residual = 0.111797, Final residual = 3.60839e-09, No Iterations 2
smoothSolver:  Solving for k, Initial residual = 0.137362, Final residual = 9.95956e-09, No Iterations 2
Uncorrected Ubar = 1.51737, pressure gradient = 11.5199
Rey = 2251.85, uTau = 0.0759258, nut+ = 0, nuEff+ = 1, y+ = 47.4536, u+ = 47.4536, k+ = 1.40163e-11, epsilon+ = 1.35377e-14, omega+ = 0.0107317
ExecutionTime = 0.034696 s  ClockTime = 0 s

Time = 34s

DICPCG:  Solving for Ux, Initial residual = 0.797563, Final residual = 1.14804e-07, No Iterations 3
DICPCG:  Solving for Uy, Initial residual = 0, Final residual = 0, No Iterations 0
smoothSolver:  Solving for epsilon, Initial residual = 0.138203, Final residual = 4.46809e-09, No Iterations 2
smoothSolver:  Solving for k, Initial residual = 0.135021, Final residual = 9.51326e-09, No Iterations 2
Uncorrected Ubar = 18.2832, pressure gradient = -11.1949
Rey = 1127.47, uTau = 0.0537246, nut+ = 0, nuEff+ = 1, y+ = 33.5778, u+ = 33.5778, k+ = 4.09814e-11, epsilon+ = 4.96582e-14, omega+ = 0.0134636
ExecutionTime = 0.035785 s  ClockTime = 0 s

Time = 35s

DICPCG:  Solving for Ux, Initial residual = 0.750273, Final residual = 1.09554e-07, No Iterations 3
DICPCG:  Solving for Uy, Initial residual = 0, Final residual = 0, No Iterations 0
smoothSolver:  Solving for epsilon, Initial residual = 0.133482, Final residual = 4.27005e-09, No Iterations 2
smoothSolver:  Solving for k, Initial residual = 0.142319, Final residual = 1.02182e-08, No Iterations 2
Uncorrected Ubar = 1.91215, pressure gradient = 10.9851
Rey = 2158.75, uTau = 0.0743397, nut+ = 0, nuEff+ = 1, y+ = 46.4623, u+ = 46.4623, k+ = 4.15657e-11, epsilon+ = 1.98298e-14, omega+ = 0.0053008
ExecutionTime = 0.036788 s  ClockTime = 0 s

Time = 36s

DICPCG:  Solving for Ux, Initial residual = 0.783659, Final residual = 1.12835e-07, No Iterations 3
DICPCG:  Solving for Uy, Initial residual = 0, Final residual = 0, No Iterations 0
smoothSolver:  Solving for epsilon, Initial residual = 0.14887, Final residual = 4.81689e-09, No Iterations 2
smoothSolver:  Solving for k, Initial residual = 0.114766, Final residual = 8.04997e-09, No Iterations 2
Uncorrected Ubar = 17.8975, pressure gradient = -10.674
Rey = 1062.68, uTau = 0.0521581, nut+ = 0, nuEff+ = 1, y+ = 32.5988, u+ = 32.5988, k+ = 1.32606e-10, epsilon+ = 1.58913e-13, omega+ = 0.0133154
ExecutionTime = 0.038025 s  ClockTime = 0 s

Time = 37s

DICPCG:  Solving for Ux, Initial residual = 0.739181, Final residual = 1.07916e-07, No Iterations 3
DICPCG:  Solving for Uy, Initial residual = 0, Final residual = 0, No Iterations 0
smoothSolver:  Solving for epsilon, Initial residual = 0.115023, Final residual = 3.65728e-09, No Iterations 2
smoothSolver:  Solving for k, Initial residual = 0.138108, Final residual = 9.86778e-09, No Iterations 2
Uncorrected Ubar = 2.289, pressure gradient = 10.4752
Rey = 2070.37, uTau = 0.0728021, nut+ = 0, nuEff+ = 1, y+ = 45.5013, u+ = 45.5013, k+ = 6.34385e-11, epsilon+ = 6.57509e-14, omega+ = 0.0115161
ExecutionTime = 0.038966 s  ClockTime = 0 s

Time = 38s

DICPCG:  Solving for Ux, Initial residual = 0.769653, Final residual = 1.10844e-07, No Iterations 3
DICPCG:  Solving for Uy, Initial residual = 0, Final residual = 0, No Iterations 0
smoothSolver:  Solving for epsilon, Initial residual = 0.136918, Final residual = 4.46456e-09, No Iterations 2
smoothSolver:  Solving for k, Initial residual = 0.135216, Final residual = 9.49831e-09, No Iterations 2
Uncorrected Ubar = 17.5292, pressure gradient = -10.1772
Rey = 1000.17, uTau = 0.0506008, nut+ = 0, nuEff+ = 1, y+ = 31.6255, u+ = 31.6255, k+ = 1.92062e-10, epsilon+ = 2.62592e-13, omega+ = 0.0151914
ExecutionTime = 0.039802 s  ClockTime = 0 s

Time = 39s

DICPCG:  Solving for Ux, Initial residual = 0.727859, Final residual = 1.06249e-07, No Iterations 3
DICPCG:  Solving for Uy, Initial residual = 0, Final residual = 0, No Iterations 0
smoothSolver:  Solving for epsilon, Initial residual = 0.135036, Final residual = 4.27889e-09, No Iterations 2
smoothSolver:  Solving for k, Initial residual = 0.14234, Final residual = 1.01744e-08, No Iterations 2
Uncorrected Ubar = 2.64901, pressure gradient = 9.98896
Rey = 1986.29, uTau = 0.0713085, nut+ = 0, nuEff+ = 1, y+ = 44.5678, u+ = 44.5678, k+ = 1.81773e-10, epsilon+ = 9.73781e-14, omega+ = 0.00595237
ExecutionTime = 0.040608 s  ClockTime = 0 s

Time = 40s

DICPCG:  Solving for Ux, Initial residual = 0.755566, Final residual = 1.08831e-07, No Iterations 3
DICPCG:  Solving for Uy, Initial residual = 0, Final residual = 0, No Iterations 0
smoothSolver:  Solving for epsilon, Initial residual = 0.144841, Final residual = 4.80582e-09, No Iterations 2
smoothSolver:  Solving for k, Initial residual = 0.117065, Final residual = 8.29597e-09, No Iterations 2
Uncorrected Ubar = 17.1771, pressure gradient = -9.70348
Rey = 939.772, uTau = 0.0490491, nut+ = 0, nuEff+ = 1, y+ = 30.6557, u+ = 30.6557, k+ = 6.01793e-10, epsilon+ = 8.17629e-13, omega+ = 0.0150962
ExecutionTime = 0.041408 s  ClockTime = 0 s

Time = 41s

DICPCG:  Solving for Ux, Initial residual = 0.716253, Final residual = 1.04538e-07, No Iterations 3
DICPCG:  Solving for Uy, Initial residual = 0, Final residual = 0, No Iterations 0
smoothSolver:  Solving for epsilon, Initial residual = 0.119276, Final residual = 3.77786e-09, No Iterations 2
smoothSolver:  Solving for k, Initial residual = 0.13881, Final residual = 9.99101e-09, No Iterations 2
Uncorrected Ubar = 2.99346, pressure gradient = 9.52524
Rey = 1906.05, uTau = 0.0698533, nut+ = 0, nuEff+ = 1, y+ = 43.6583, u+ = 43.6583, k+ = 2.8212e-10, epsilon+ = 3.11338e-13, omega+ = 0.0122619
ExecutionTime = 0.042209 s  ClockTime = 0 s

Time = 42s

DICPCG:  Solving for Ux, Initial residual = 0.739985, Final residual = 1.06569e-07, No Iterations 3
DICPCG:  Solving for Uy, Initial residual = 0, Final residual = 0, No Iterations 0
smoothSolver:  Solving for epsilon, Initial residual = 0.133058, Final residual = 4.56192e-09, No Iterations 2
smoothSolver:  Solving for k, Initial residual = 0.134933, Final residual = 9.74603e-09, No Iterations 2
Uncorrected Ubar = 16.8398, pressure gradient = -9.25165
Rey = 881.184, uTau = 0.0474956, nut+ = 0, nuEff+ = 1, y+ = 29.6848, u+ = 29.6848, k+ = 8.94604e-10, epsilon+ = 1.38504e-12, omega+ = 0.0172024
ExecutionTime = 0.043022 s  ClockTime = 0 s

Time = 43s

DICPCG:  Solving for Ux, Initial residual = 0.704268, Final residual = 1.02734e-07, No Iterations 3
DICPCG:  Solving for Uy, Initial residual = 0, Final residual = 0, No Iterations 0
smoothSolver:  Solving for epsilon, Initial residual = 0.138411, Final residual = 4.40833e-09, No Iterations 2
smoothSolver:  Solving for k, Initial residual = 0.142421, Final residual = 1.04163e-08, No Iterations 2
Uncorrected Ubar = 3.32384, pressure gradient = 9.08291
Rey = 1829.11, uTau = 0.068429, nut+ = 0, nuEff+ = 1, y+ = 42.7682, u+ = 42.7682, k+ = 7.84721e-10, epsilon+ = 4.71244e-13, omega+ = 0.00667249
ExecutionTime = 0.043823 s  ClockTime = 0 s

Time = 44s

DICPCG:  Solving for Ux, Initial residual = 0.724066, Final residual = 1.04147e-07, No Iterations 3
DICPCG:  Solving for Uy, Initial residual = 0, Final residual = 0, No Iterations 0
smoothSolver:  Solving for epsilon, Initial residual = 0.13596, Final residual = 4.95016e-09, No Iterations 2
smoothSolver:  Solving for k, Initial residual = 0.118646, Final residual = 8.87032e-09, No Iterations 2
Uncorrected Ubar = 16.5157, pressure gradient = -8.82062
Rey = 823.927, uTau = 0.0459266, nut+ = 0, nuEff+ = 1, y+ = 28.7041, u+ = 28.7041, k+ = 2.72444e-09, epsilon+ = 4.22872e-12, omega+ = 0.017246
ExecutionTime = 0.044625 s  ClockTime = 0 s

Time = 45s

DICPCG:  Solving for Ux, Initial residual = 0.691729, Final residual = 1.00689e-07, No Iterations 3
DICPCG:  Solving for Uy, Initial residual = 0, Final residual = 0, No Iterations 0
smoothSolver:  Solving for epsilon, Initial residual = 0.125344, Final residual = 4.07245e-09, No Iterations 2
smoothSolver:  Solving for k, Initial residual = 0.139545, Final residual = 1.05118e-08, No Iterations 2
Uncorrected Ubar = 3.64208, pressure gradient = 8.66084
Rey = 1754.85, uTau = 0.0670255, nut+ = 0, nuEff+ = 1, y+ = 41.8909, u+ = 41.8909, k+ = 1.25198e-09, epsilon+ = 1.45786e-12, omega+ = 0.0129383
ExecutionTime = 0.045469 s  ClockTime = 0 s

Time = 46s

DICPCG:  Solving for Ux, Initial residual = 0.708263, Final residual = 1.01395e-07, No Iterations 3
DICPCG:  Solving for Uy, Initial residual = 0, Final residual = 0, No Iterations 0
smoothSolver:  Solving for epsilon, Initial residual = 0.120269, Final residual = 4.90121e-09, No Iterations 2
smoothSolver:  Solving for k, Initial residual = 0.133524, Final residual = 1.05854e-08, No Iterations 2
Uncorrected Ubar = 16.2025, pressure gradient = -8.40922
Rey = 767.235, uTau = 0.0443184, nut+ = 0, nuEff+ = 1, y+ = 27.699, u+ = 27.699, k+ = 4.22349e-09, epsilon+ = 7.46464e-12, omega+ = 0.0196379
ExecutionTime = 0.046317 s  ClockTime = 0 s

Time = 47s

DICPCG:  Solving for Ux, Initial residual = 0.678241, Final residual = 9.79363e-08, No Iterations 3
DICPCG:  Solving for Uy, Initial residual = 0, Final residual = 0, No Iterations 0
smoothSolver:  Solving for epsilon, Initial residual = 0.142758, Final residual = 4.90891e-09, No Iterations 2
smoothSolver:  Solving for k, Initial residual = 0.142431, Final residual = 1.12783e-08, No Iterations 2
Uncorrected Ubar = 3.95074, pressure gradient = 8.25775
Rey = 1682.44, uTau = 0.0656281, nut+ = 0, nuEff+ = 1, y+ = 41.0176, u+ = 41.0176, k+ = 3.38354e-09, epsilon+ = 2.28955e-12, omega+ = 0.00751859
ExecutionTime = 0.047171 s  ClockTime = 0 s

Time = 48s

DICPCG:  Solving for Ux, Initial residual = 0.691319, Final residual = 9.748e-08, No Iterations 3
DICPCG:  Solving for Uy, Initial residual = 0, Final residual = 0, No Iterations 0
smoothSolver:  Solving for epsilon, Initial residual = 0.109398, Final residual = 5.56452e-09, No Iterations 2
smoothSolver:  Solving for k, Initial residual = 0.118491, Final residual = 1.03473e-08, No Iterations 2
Uncorrected Ubar = 15.8971, pressure gradient = -8.01608
Rey = 709.95, uTau = 0.0426318, nut+ = 0, nuEff+ = 1, y+ = 26.6449, u+ = 26.6449, k+ = 1.25487e-08, epsilon+ = 2.25884e-11, omega+ = 0.0200006
ExecutionTime = 0.048 s  ClockTime = 0 s

Time = 49s

DICPCG:  Solving for Ux, Initial residual = 0.663154, Final residual = 9.41866e-08, No Iterations 3
DICPCG:  Solving for Uy, Initial residual = 0, Final residual = 0, No Iterations 0
smoothSolver:  Solving for epsilon, Initial residual = 0.152414, Final residual = 5.98853e-09, No Iterations 2
smoothSolver:  Solving for k, Initial residual = 0.139759, Final residual = 1.19842e-08, No Iterations 2
Uncorrected Ubar = 4.25311, pressure gradient = 7.87201
Rey = 1611, uTau = 0.0642196, nut+ = 0, nuEff+ = 1, y+ = 40.1372, u+ = 40.1372, k+ = 5.66598e-09, epsilon+ = 6.86544e-12, omega+ = 0.0134633
ExecutionTime = 0.048805 s  ClockTime = 0 s

Time = 50s

DICPCG:  Solving for Ux, Initial residual = 0.67482, Final residual = 9.34467e-08, No Iterations 3
DICPCG:  Solving for Uy, Initial residual = 0, Final residual = 0, No Iterations 0
smoothSolver:  Solving for epsilon, Initial residual = 0.138536, Final residual = 7.51135e-09, No Iterations 2
smoothSolver:  Solving for k, Initial residual = 0.128615, Final residual = 1.31466e-08, No Iterations 2
Uncorrected Ubar = 15.596, pressure gradient = -7.63929
Rey = 650.576, uTau = 0.0408102, nut+ = 0, nuEff+ = 1, y+ = 25.5064, u+ = 25.5064, k+ = 2.09183e-08, epsilon+ = 4.31324e-11, omega+ = 0.0229105
ExecutionTime = 0.049602 s  ClockTime = 0 s

Time = 51s

DICPCG:  Solving for Ux, Initial residual = 0.645729, Final residual = 8.84636e-08, No Iterations 3
DICPCG:  Solving for Uy, Initial residual = 0, Final residual = 0, No Iterations 0
smoothSolver:  Solving for epsilon, Initial residual = 0.207818, Final residual = 9.61526e-09, No Iterations 2
smoothSolver:  Solving for k, Initial residual = 0.140501, Final residual = 1.36682e-08, No Iterations 2
Uncorrected Ubar = 4.55277, pressure gradient = 7.50116
Rey = 1539.88, uTau = 0.0627861, nut+ = 0, nuEff+ = 1, y+ = 39.2413, u+ = 39.2413, k+ = 1.46898e-08, epsilon+ = 1.14784e-11, omega+ = 0.00868206
ExecutionTime = 0.050399 s  ClockTime = 0 s

Time = 52s

DICPCG:  Solving for Ux, Initial residual = 0.658842, Final residual = 8.62031e-08, No Iterations 3
DICPCG:  Solving for Uy, Initial residual = 0, Final residual = 0, No Iterations 0
smoothSolver:  Solving for epsilon, Initial residual = 0.203737, Final residual = 1.1401e-08, No Iterations 2
smoothSolver:  Solving for k, Initial residual = 0.112957, Final residual = 1.50768e-08, No Iterations 2
Uncorrected Ubar = 15.2963, pressure gradient = -7.27566
Rey = 588.04, uTau = 0.0387993, nut+ = 0, nuEff+ = 1, y+ = 24.2495, u+ = 24.2495, k+ = 6.03886e-08, epsilon+ = 1.30834e-10, omega+ = 0.0240726
ExecutionTime = 0.051493 s  ClockTime = 0 s

Time = 53s

DICPCG:  Solving for Ux, Initial residual = 0.624902, Final residual = 7.6741e-08, No Iterations 3
DICPCG:  Solving for Uy, Initial residual = 0, Final residual = 0, No Iterations 0
smoothSolver:  Solving for epsilon, Initial residual = 0.233527, Final residual = 1.25237e-08, No Iterations 2
smoothSolver:  Solving for k, Initial residual = 0.150294, Final residual = 2.35866e-08, No Iterations 2
Uncorrected Ubar = 4.85155, pressure gradient = 7.14103
Rey = 1469.53, uTau = 0.0613352, nut+ = 0, nuEff+ = 1, y+ = 38.3345, u+ = 38.3345, k+ = 2.65553e-08, epsilon+ = 3.28877e-11, omega+ = 0.0137607
ExecutionTime = 0.052473 s  ClockTime = 0 s

Time = 54s

DICPCG:  Solving for Ux, Initial residual = 0.64294, Final residual = 6.98616e-08, No Iterations 3
DICPCG:  Solving for Uy, Initial residual = 0, Final residual = 0, No Iterations 0
smoothSolver:  Solving for epsilon, Initial residual = 0.26814, Final residual = 1.5749e-08, No Iterations 2
smoothSolver:  Solving for k, Initial residual = 0.139557, Final residual = 3.4085e-08, No Iterations 2
Uncorrected Ubar = 14.9989, pressure gradient = -6.91987
Rey = 523.164, uTau = 0.0365964, nut+ = 0, nuEff+ = 1, y+ = 22.8728, u+ = 22.8728, k+ = 1.12035e-07, epsilon+ = 2.85158e-10, omega+ = 0.0282805
ExecutionTime = 0.053367 s  ClockTime = 0 s

Time = 55s

DICPCG:  Solving for Ux, Initial residual = 0.600086, Final residual = 7.82893e-08, No Iterations 3
DICPCG:  Solving for Uy, Initial residual = 0, Final residual = 0, No Iterations 0
smoothSolver:  Solving for epsilon, Initial residual = 0.276375, Final residual = 1.5996e-08, No Iterations 2
smoothSolver:  Solving for k, Initial residual = 0.158657, Final residual = 5.28311e-08, No Iterations 2
Uncorrected Ubar = 5.14738, pressure gradient = 6.7854
Rey = 1401.66, uTau = 0.059902, nut+ = 0, nuEff+ = 1, y+ = 37.4388, u+ = 37.4388, k+ = 6.36099e-08, epsilon+ = 5.96673e-11, omega+ = 0.0104224
ExecutionTime = 0.054504 s  ClockTime = 0 s

Time = 56s

DICPCG:  Solving for Ux, Initial residual = 0.625515, Final residual = 1.55054e-07, No Iterations 3
DICPCG:  Solving for Uy, Initial residual = 0, Final residual = 0, No Iterations 0
smoothSolver:  Solving for epsilon, Initial residual = 0.328457, Final residual = 2.72168e-08, No Iterations 2
smoothSolver:  Solving for k, Initial residual = 0.144724, Final residual = 8.99681e-08, No Iterations 2
Uncorrected Ubar = 14.7034, pressure gradient = -6.56368
Rey = 456.409, uTau = 0.034182, nut+ = 0, nuEff+ = 1, y+ = 21.3637, u+ = 21.3637, k+ = 3.05222e-07, epsilon+ = 8.5603e-10, omega+ = 0.0311624
ExecutionTime = 0.055365 s  ClockTime = 0 s

Time = 57s

DICPCG:  Solving for Ux, Initial residual = 0.56913, Final residual = 2.17283e-07, No Iterations 3
DICPCG:  Solving for Uy, Initial residual = 0, Final residual = 0, No Iterations 0
smoothSolver:  Solving for epsilon, Initial residual = 0.247217, Final residual = 1.63805e-08, No Iterations 2
smoothSolver:  Solving for k, Initial residual = 0.148762, Final residual = 1.42052e-07, No Iterations 2
Uncorrected Ubar = 5.44236, pressure gradient = 6.425
Rey = 1335.64, uTau = 0.0584743, nut+ = 0, nuEff+ = 1, y+ = 36.5465, u+ = 36.5465, k+ = 1.21003e-07, epsilon+ = 1.56178e-10, omega+ = 0.014341
ExecutionTime = 0.056166 s  ClockTime = 0 s

Time = 58s

DICPCG:  Solving for Ux, Initial residual = 0.598095, Final residual = 3.90054e-07, No Iterations 3
DICPCG:  Solving for Uy, Initial residual = 0, Final residual = 0, No Iterations 0
smoothSolver:  Solving for epsilon, Initial residual = 0.325573, Final residual = 5.10362e-08, No Iterations 2
smoothSolver:  Solving for k, Initial residual = 0.146838, Final residual = 3.27743e-07, No Iterations 2
Uncorrected Ubar = 14.4011, pressure gradient = -6.19632
Rey = 385.458, uTau = 0.0314129, nut+ = 0, nuEff+ = 1, y+ = 19.6331, u+ = 19.6331, k+ = 6.26865e-07, epsilon+ = 2.17552e-09, omega+ = 0.0385609
ExecutionTime = 0.057014 s  ClockTime = 0 s

Time = 59s

DICPCG:  Solving for Ux, Initial residual = 0.521776, Final residual = 5.0374e-07, No Iterations 3
DICPCG:  Solving for Uy, Initial residual = 0, Final residual = 0, No Iterations 0
smoothSolver:  Solving for epsilon, Initial residual = 0.237488, Final residual = 2.42062e-08, No Iterations 2
smoothSolver:  Solving for k, Initial residual = 0.129728, Final residual = 5.84767e-07, No Iterations 2
Uncorrected Ubar = 5.75202, pressure gradient = 6.04584
Rey = 1265.17, uTau = 0.0569108, nut+ = 0, nuEff+ = 1, y+ = 35.5693, u+ = 35.5693, k+ = 2.65255e-07, epsilon+ = 3.01913e-10, omega+ = 0.0126467
ExecutionTime = 0.057837 s  ClockTime = 0 s

Time = 60s

DICPCG:  Solving for Ux, Initial residual = 0.559676, Final residual = 7.39088e-07, No Iterations 3
DICPCG:  Solving for Uy, Initial residual = 0, Final residual = 0, No Iterations 0
smoothSolver:  Solving for epsilon, Initial residual = 0.314957, Final residual = 4.24507e-08, No Iterations 2
smoothSolver:  Solving for k, Initial residual = 0.113451, Final residual = 6.16279e-09, No Iterations 3
Uncorrected Ubar = 14.0812, pressure gradient = -5.80633
Rey = 310.665, uTau = 0.0282011, nut+ = 0, nuEff+ = 1, y+ = 17.6257, u+ = 17.6257, k+ = 1.66059e-06, epsilon+ = 6.95437e-09, omega+ = 0.0465321
ExecutionTime = 0.058644 s  ClockTime = 0 s

Time = 61s

DICPCG:  Solving for Ux, Initial residual = 0.444822, Final residual = 7.77139e-07, No Iterations 3
DICPCG:  Solving for Uy, Initial residual = 0, Final residual = 0, No Iterations 0
smoothSolver:  Solving for epsilon, Initial residual = 0.284253, Final residual = 1.14693e-07, No Iterations 2
smoothSolver:  Solving for k, Initial residual = 0.105965, Final residual = 2.13694e-08, No Iterations 3
Uncorrected Ubar = 6.07971, pressure gradient = 5.64015
Rey = 1190.96, uTau = 0.0552164, nut+ = 0, nuEff+ = 1, y+ = 34.5102, u+ = 34.5102, k+ = 5.14364e-07, epsilon+ = 7.27434e-10, omega+ = 0.0157138
ExecutionTime = 0.059466 s  ClockTime = 0 s

Time = 62s

DICPCG:  Solving for Ux, Initial residual = 0.499244, Final residual = 1.38752e-08, No Iterations 4
DICPCG:  Solving for Uy, Initial residual = 0, Final residual = 0, No Iterations 0
smoothSolver:  Solving for epsilon, Initial residual = 0.398814, Final residual = 5.87507e-07, No Iterations 2
smoothSolver:  Solving for k, Initial residual = 0.0945713, Final residual = 4.41344e-08, No Iterations 3
Uncorrected Ubar = 13.7503, pressure gradient = -5.39425
Rey = 236.199, uTau = 0.0245901, nut+ = 0, nuEff+ = 1, y+ = 15.3688, u+ = 15.3688, k+ = 3.85083e-06, epsilon+ = 2.19603e-08, omega+ = 0.0633639
ExecutionTime = 0.060277 s  ClockTime = 0 s

Time = 63s

DICPCG:  Solving for Ux, Initial residual = 0.352505, Final residual = 8.5323e-07, No Iterations 3
DICPCG:  Solving for Uy, Initial residual = 0, Final residual = 0, No Iterations 0
smoothSolver:  Solving for epsilon, Initial residual = 0.397907, Final residual = 9.85204e-09, No Iterations 3
smoothSolver:  Solving for k, Initial residual = 0.094009, Final residual = 1.66612e-07, No Iterations 2
Uncorrected Ubar = 6.40508, pressure gradient = 5.22183
Rey = 1123.75, uTau = 0.0536358, nut+ = 0, nuEff+ = 1, y+ = 33.5223, u+ = 33.5223, k+ = 1.05823e-06, epsilon+ = 1.44054e-09, omega+ = 0.0151253
ExecutionTime = 0.061082 s  ClockTime = 0 s

Time = 64s

DICPCG:  Solving for Ux, Initial residual = 0.434735, Final residual = 1.57485e-08, No Iterations 4
DICPCG:  Solving for Uy, Initial residual = 0, Final residual = 0, No Iterations 0
smoothSolver:  Solving for epsilon, Initial residual = 0.478442, Final residual = 2.32888e-08, No Iterations 3
smoothSolver:  Solving for k, Initial residual = 0.118702, Final residual = 3.9931e-07, No Iterations 3
Uncorrected Ubar = 13.4344, pressure gradient = -4.98244
Rey = 167.652, uTau = 0.0207169, nut+ = 0, nuEff+ = 1, y+ = 12.9481, u+ = 12.9481, k+ = 1.0711e-05, epsilon+ = 8.46176e-08, omega+ = 0.0877781
ExecutionTime = 0.061894 s  ClockTime = 0 s

Time = 65s

DICPCG:  Solving for Ux, Initial residual = 0.306529, Final residual = 8.21805e-07, No Iterations 3
DICPCG:  Solving for Uy, Initial residual = 0, Final residual = 0, No Iterations 0
smoothSolver:  Solving for epsilon, Initial residual = 0.383992, Final residual = 2.23202e-08, No Iterations 3
smoothSolver:  Solving for k, Initial residual = 0.125646, Final residual = 7.27287e-07, No Iterations 3
Uncorrected Ubar = 6.70201, pressure gradient = 4.82211
Rey = 1071.11, uTau = 0.0523644, nut+ = 0, nuEff+ = 1, y+ = 32.7277, u+ = 32.7277, k+ = 2.05656e-06, epsilon+ = 3.13045e-09, omega+ = 0.016913
ExecutionTime = 0.062744 s  ClockTime = 0 s

Time = 66s

DICPCG:  Solving for Ux, Initial residual = 0.401452, Final residual = 1.4867e-08, No Iterations 4
DICPCG:  Solving for Uy, Initial residual = 0, Final residual = 0, No Iterations 0
smoothSolver:  Solving for epsilon, Initial residual = 0.469345, Final residual = 2.34847e-08, No Iterations 3
smoothSolver:  Solving for k, Initial residual = 0.142968, Final residual = 7.76231e-07, No Iterations 3
Uncorrected Ubar = 13.1515, pressure gradient = -4.60111
Rey = 106.293, uTau = 0.0164958, nut+ = 0, nuEff+ = 1, y+ = 10.3098, u+ = 10.3098, k+ = 3.07371e-05, epsilon+ = 3.89938e-07, omega+ = 0.140958
ExecutionTime = 0.063568 s  ClockTime = 0 s

Time = 67s

DICPCG:  Solving for Ux, Initial residual = 0.307787, Final residual = 7.63023e-07, No Iterations 3
DICPCG:  Solving for Uy, Initial residual = 0, Final residual = 0, No Iterations 0
smoothSolver:  Solving for epsilon, Initial residual = 0.359226, Final residual = 4.99962e-07, No Iterations 2
smoothSolver:  Solving for k, Initial residual = 0.122928, Final residual = 2.8417e-07, No Iterations 3
Uncorrected Ubar = 6.96659, pressure gradient = 4.46151
Rey = 1027.32, uTau = 0.0512828, nut+ = 0, nuEff+ = 1, y+ = 32.0518, u+ = 32.0518, k+ = 4.04124e-06, epsilon+ = 6.1914e-09, omega+ = 0.0170229
ExecutionTime = 0.064386 s  ClockTime = 0 s

Time = 68s

DICPCG:  Solving for Ux, Initial residual = 0.384314, Final residual = 8.90718e-07, No Iterations 3
DICPCG:  Solving for Uy, Initial residual = 0, Final residual = 0, No Iterations 0
smoothSolver:  Solving for epsilon, Initial residual = 0.445658, Final residual = 8.03077e-07, No Iterations 2
smoothSolver:  Solving for k, Initial residual = 0.140575, Final residual = 2.66001e-07, No Iterations 3
Uncorrected Ubar = 12.8997, pressure gradient = -4.25852
Rey = 50.9374, uTau = 0.0114193, nut+ = 0, nuEff+ = 1, y+ = 7.13704, u+ = 7.13704, k+ = 0.000121629, epsilon+ = 3.20018e-06, omega+ = 0.292345
ExecutionTime = 0.065215 s  ClockTime = 0 s

Time = 69s

DICPCG:  Solving for Ux, Initial residual = 0.30702, Final residual = 7.10673e-07, No Iterations 3
DICPCG:  Solving for Uy, Initial residual = 0, Final residual = 0, No Iterations 0
smoothSolver:  Solving for epsilon, Initial residual = 0.315879, Final residual = 4.09973e-07, No Iterations 2
smoothSolver:  Solving for k, Initial residual = 0.108485, Final residual = 7.36257e-08, No Iterations 3
Uncorrected Ubar = 7.20809, pressure gradient = 4.13831
Rey = 985.352, uTau = 0.0502245, nut+ = 0, nuEff+ = 1, y+ = 31.3903, u+ = 31.3903, k+ = 7.86595e-06, epsilon+ = 1.2762e-08, omega+ = 0.0180271
ExecutionTime = 0.066025 s  ClockTime = 0 s

Time = 70s

DICPCG:  Solving for Ux, Initial residual = 0.360271, Final residual = 8.00714e-07, No Iterations 3
DICPCG:  Solving for Uy, Initial residual = 0, Final residual = 0, No Iterations 0
smoothSolver:  Solving for epsilon, Initial residual = 0.426501, Final residual = 6.00804e-07, No Iterations 2
smoothSolver:  Solving for k, Initial residual = 0.140944, Final residual = 1.07587e-07, No Iterations 3
Uncorrected Ubar = 12.6636, pressure gradient = -3.94854
Rey = 2.64127, uTau = 0.00260032, nut+ = 0, nuEff+ = 1, y+ = 1.6252, u+ = 1.6252, k+ = 0.00435147, epsilon+ = 0.00222202, omega+ = 5.67373
ExecutionTime = 0.067361 s  ClockTime = 0 s

Time = 71s

DICPCG:  Solving for Ux, Initial residual = 0.290706, Final residual = 6.61766e-07, No Iterations 3
DICPCG:  Solving for Uy, Initial residual = 0, Final residual = 0, No Iterations 0
smoothSolver:  Solving for epsilon, Initial residual = 0.31621, Final residual = 6.91604e-07, No Iterations 2
smoothSolver:  Solving for k, Initial residual = 0.120078, Final residual = 1.27536e-07, No Iterations 3
Uncorrected Ubar = 7.43831, pressure gradient = 3.842
Rey = 942.29, uTau = 0.0491148, nut+ = 0, nuEff+ = 1, y+ = 30.6967, u+ = 30.6967, k+ = 1.54437e-05, epsilon+ = 2.58886e-08, omega+ = 0.0186258
ExecutionTime = 0.06834 s  ClockTime = 0 s

Time = 72s

DICPCG:  Solving for Ux, Initial residual = 0.331634, Final residual = 6.82676e-07, No Iterations 3
DICPCG:  Solving for Uy, Initial residual = 0, Final residual = 0, No Iterations 0
smoothSolver:  Solving for epsilon, Initial residual = 0.408609, Final residual = 7.29314e-07, No Iterations 2
smoothSolver:  Solving for k, Initial residual = 0.147443, Final residual = 1.20253e-07, No Iterations 3
Uncorrected Ubar = 12.4417, pressure gradient = -3.66153
Rey = 52.2174, uTau = 0.0115619, nut+ = 0, nuEff+ = 1, y+ = 7.22616, u+ = 7.22616, k+ = 0.000413415, epsilon+ = 1.06742e-05, omega+ = 0.286884
ExecutionTime = 0.069165 s  ClockTime = 0 s

Time = 73s

DICPCG:  Solving for Ux, Initial residual = 0.270181, Final residual = 5.92719e-07, No Iterations 3
DICPCG:  Solving for Uy, Initial residual = 0, Final residual = 0, No Iterations 0
smoothSolver:  Solving for epsilon, Initial residual = 0.311852, Final residual = 8.3963e-07, No Iterations 2
smoothSolver:  Solving for k, Initial residual = 0.119519, Final residual = 1.57305e-07, No Iterations 3
Uncorrected Ubar = 7.65406, pressure gradient = 3.56722
Rey = 901.185, uTau = 0.0480316, nut+ = 0, nuEff+ = 1, y+ = 30.0197, u+ = 30.0197, k+ = 3.04096e-05, epsilon+ = 5.31623e-08, omega+ = 0.0194245
ExecutionTime = 0.070119 s  ClockTime = 0 s

Time = 74s

DICPCG:  Solving for Ux, Initial residual = 0.299566, Final residual = 5.64499e-07, No Iterations 3
DICPCG:  Solving for Uy, Initial residual = 0, Final residual = 0, No Iterations 0
smoothSolver:  Solving for epsilon, Initial residual = 0.379974, Final residual = 9.92796e-07, No Iterations 2
smoothSolver:  Solving for k, Initial residual = 0.152986, Final residual = 1.47355e-07, No Iterations 3
Uncorrected Ubar = 12.2338, pressure gradient = -3.39344
Rey = 98.57, uTau = 0.0158852, nut+ = 0, nuEff+ = 1, y+ = 9.92824, u+ = 9.92824, k+ = 0.000411618, epsilon+ = 5.64113e-06, omega+ = 0.152275
ExecutionTime = 0.071218 s  ClockTime = 0 s

Time = 75s

DICPCG:  Solving for Ux, Initial residual = 0.243686, Final residual = 5.03688e-07, No Iterations 3
DICPCG:  Solving for Uy, Initial residual = 0, Final residual = 0, No Iterations 0
smoothSolver:  Solving for epsilon, Initial residual = 0.319645, Final residual = 1.35817e-08, No Iterations 3
smoothSolver:  Solving for k, Initial residual = 0.114404, Final residual = 1.62028e-07, No Iterations 3
Uncorrected Ubar = 7.857, pressure gradient = 3.30844
Rey = 862.885, uTau = 0.0469998, nut+ = 0, nuEff+ = 1, y+ = 29.3749, u+ = 29.3749, k+ = 6.02671e-05, epsilon+ = 1.08984e-07, omega+ = 0.0200928
ExecutionTime = 0.072055 s  ClockTime = 0 s

Time = 76s

DICPCG:  Solving for Ux, Initial residual = 0.26519, Final residual = 6.00404e-07, No Iterations 3
DICPCG:  Solving for Uy, Initial residual = 0, Final residual = 0, No Iterations 0
smoothSolver:  Solving for epsilon, Initial residual = 0.354178, Final residual = 1.04685e-08, No Iterations 3
smoothSolver:  Solving for k, Initial residual = 0.156542, Final residual = 1.74507e-07, No Iterations 3
Uncorrected Ubar = 12.0393, pressure gradient = -3.13939
Rey = 142.031, uTau = 0.0190683, nut+ = 0, nuEff+ = 1, y+ = 11.9177, u+ = 11.9177, k+ = 0.000541812, epsilon+ = 5.15578e-06, omega+ = 0.105731
ExecutionTime = 0.072866 s  ClockTime = 0 s

Time = 77s

DICPCG:  Solving for Ux, Initial residual = 0.211101, Final residual = 5.08119e-07, No Iterations 3
DICPCG:  Solving for Uy, Initial residual = 0, Final residual = 0, No Iterations 0
smoothSolver:  Solving for epsilon, Initial residual = 0.298559, Final residual = 2.11627e-08, No Iterations 3
smoothSolver:  Solving for k, Initial residual = 0.117453, Final residual = 1.56918e-07, No Iterations 3
Uncorrected Ubar = 8.04705, pressure gradient = 3.06294
Rey = 829.275, uTau = 0.0460754, nut+ = 0, nuEff+ = 1, y+ = 28.7971, u+ = 28.7971, k+ = 0.000120251, epsilon+ = 2.23803e-07, omega+ = 0.0206793
ExecutionTime = 0.073678 s  ClockTime = 0 s

Time = 78s

DICPCG:  Solving for Ux, Initial residual = 0.227722, Final residual = 5.67961e-07, No Iterations 3
DICPCG:  Solving for Uy, Initial residual = 0, Final residual = 0, No Iterations 0
smoothSolver:  Solving for epsilon, Initial residual = 0.306422, Final residual = 1.52711e-08, No Iterations 3
smoothSolver:  Solving for k, Initial residual = 0.150549, Final residual = 1.89393e-07, No Iterations 3
Uncorrected Ubar = 11.8567, pressure gradient = -2.9008
Rey = 184.17, uTau = 0.0217135, nut+ = 0, nuEff+ = 1, y+ = 13.5709, u+ = 13.5709, k+ = 0.000801279, epsilon+ = 5.88e-06, omega+ = 0.0815363
ExecutionTime = 0.074563 s  ClockTime = 0 s

Time = 79s

DICPCG:  Solving for Ux, Initial residual = 0.169201, Final residual = 4.55017e-07, No Iterations 3
DICPCG:  Solving for Uy, Initial residual = 0, Final residual = 0, No Iterations 0
smoothSolver:  Solving for epsilon, Initial residual = 0.292349, Final residual = 3.74197e-08, No Iterations 3
smoothSolver:  Solving for k, Initial residual = 0.138029, Final residual = 1.73037e-07, No Iterations 3
Uncorrected Ubar = 8.22607, pressure gradient = 2.82982
Rey = 800.976, uTau = 0.0452824, nut+ = 0, nuEff+ = 1, y+ = 28.3015, u+ = 28.3015, k+ = 0.000242583, epsilon+ = 4.60039e-07, omega+ = 0.0210713
ExecutionTime = 0.075498 s  ClockTime = 0 s

Time = 80s

DICPCG:  Solving for Ux, Initial residual = 0.188237, Final residual = 4.34891e-07, No Iterations 3
DICPCG:  Solving for Uy, Initial residual = 0, Final residual = 0, No Iterations 0
smoothSolver:  Solving for epsilon, Initial residual = 0.249023, Final residual = 2.74611e-08, No Iterations 3
smoothSolver:  Solving for k, Initial residual = 0.137174, Final residual = 3.10033e-07, No Iterations 3
Uncorrected Ubar = 11.6846, pressure gradient = -2.67722
Rey = 226.994, uTau = 0.0241061, nut+ = 0, nuEff+ = 1, y+ = 15.0663, u+ = 15.0663, k+ = 0.0012679, epsilon+ = 7.5419e-06, omega+ = 0.0660926
ExecutionTime = 0.076342 s  ClockTime = 0 s

Time = 81s

DICPCG:  Solving for Ux, Initial residual = 0.128619, Final residual = 3.11068e-07, No Iterations 3
DICPCG:  Solving for Uy, Initial residual = 0, Final residual = 0, No Iterations 0
smoothSolver:  Solving for epsilon, Initial residual = 0.288475, Final residual = 6.3232e-08, No Iterations 3
smoothSolver:  Solving for k, Initial residual = 0.150295, Final residual = 6.05866e-07, No Iterations 3
Uncorrected Ubar = 8.39262, pressure gradient = 2.6121
Rey = 781.866, uTau = 0.044739, nut+ = 0, nuEff+ = 1, y+ = 27.9619, u+ = 27.9619, k+ = 0.000494994, epsilon+ = 9.41597e-07, omega+ = 0.021136
ExecutionTime = 0.077157 s  ClockTime = 0 s

Time = 82s

DICPCG:  Solving for Ux, Initial residual = 0.146954, Final residual = 2.19645e-07, No Iterations 3
DICPCG:  Solving for Uy, Initial residual = 0, Final residual = 0, No Iterations 0
smoothSolver:  Solving for epsilon, Initial residual = 0.19589, Final residual = 5.51991e-08, No Iterations 3
smoothSolver:  Solving for k, Initial residual = 0.120977, Final residual = 6.50787e-07, No Iterations 3
Uncorrected Ubar = 11.5218, pressure gradient = -2.47058
Rey = 275.095, uTau = 0.0265376, nut+ = 0, nuEff+ = 1, y+ = 16.586, u+ = 16.586, k+ = 0.00208957, epsilon+ = 1.02281e-05, omega+ = 0.054387
ExecutionTime = 0.077964 s  ClockTime = 0 s

Time = 83s

DICPCG:  Solving for Ux, Initial residual = 0.0935826, Final residual = 1.47102e-07, No Iterations 3
DICPCG:  Solving for Uy, Initial residual = 0, Final residual = 0, No Iterations 0
smoothSolver:  Solving for epsilon, Initial residual = 0.270852, Final residual = 1.0917e-07, No Iterations 3
smoothSolver:  Solving for k, Initial residual = 0.145534, Final residual = 6.12212e-08, No Iterations 4
Uncorrected Ubar = 8.55052, pressure gradient = 2.41215
Rey = 774.626, uTau = 0.0445314, nut+ = 0, nuEff+ = 1, y+ = 27.8321, u+ = 27.8321, k+ = 0.00102608, epsilon+ = 1.91596e-06, omega+ = 0.0207474
ExecutionTime = 0.078776 s  ClockTime = 0 s

Time = 84s

DICPCG:  Solving for Ux, Initial residual = 0.105177, Final residual = 1.47759e-07, No Iterations 3
DICPCG:  Solving for Uy, Initial residual = 0, Final residual = 0, No Iterations 0
smoothSolver:  Solving for epsilon, Initial residual = 0.162678, Final residual = 1.37201e-07, No Iterations 3
smoothSolver:  Solving for k, Initial residual = 0.105247, Final residual = 1.20193e-07, No Iterations 4
Uncorrected Ubar = 11.3675, pressure gradient = -2.28139
Rey = 333.099, uTau = 0.0292016, nut+ = 0, nuEff+ = 1, y+ = 18.251, u+ = 18.251, k+ = 0.00356299, epsilon+ = 1.4327e-05, omega+ = 0.0446786
ExecutionTime = 0.079593 s  ClockTime = 0 s

Time = 85s

DICPCG:  Solving for Ux, Initial residual = 0.0634217, Final residual = 6.33098e-08, No Iterations 3
DICPCG:  Solving for Uy, Initial residual = 0, Final residual = 0, No Iterations 0
smoothSolver:  Solving for epsilon, Initial residual = 0.259069, Final residual = 2.38414e-07, No Iterations 3
smoothSolver:  Solving for k, Initial residual = 0.129412, Final residual = 4.62488e-07, No Iterations 4
Uncorrected Ubar = 8.69959, pressure gradient = 2.23007
Rey = 785.744, uTau = 0.0448498, nut+ = 0, nuEff+ = 1, y+ = 28.0311, u+ = 28.0311, k+ = 0.00216211, epsilon+ = 3.84464e-06, omega+ = 0.0197576
ExecutionTime = 0.080445 s  ClockTime = 0 s

Time = 86s

DICPCG:  Solving for Ux, Initial residual = 0.0697196, Final residual = 1.06391e-07, No Iterations 3
DICPCG:  Solving for Uy, Initial residual = 0, Final residual = 0, No Iterations 0
smoothSolver:  Solving for epsilon, Initial residual = 0.118903, Final residual = 4.39901e-07, No Iterations 3
smoothSolver:  Solving for k, Initial residual = 0.0959808, Final residual = 1.13822e-07, No Iterations 5
Uncorrected Ubar = 11.224, pressure gradient = -2.11173
Rey = 406.515, uTau = 0.0322596, nut+ = 0, nuEff+ = 1, y+ = 20.1622, u+ = 20.1622, k+ = 0.00630634, epsilon+ = 2.05606e-05, omega+ = 0.0362256
ExecutionTime = 0.081285 s  ClockTime = 0 s

Time = 87s

DICPCG:  Solving for Ux, Initial residual = 0.0419033, Final residual = 6.0851e-08, No Iterations 3
DICPCG:  Solving for Uy, Initial residual = 0, Final residual = 0, No Iterations 0
smoothSolver:  Solving for epsilon, Initial residual = 0.253794, Final residual = 6.87549e-07, No Iterations 3
smoothSolver:  Solving for k, Initial residual = 0.115987, Final residual = 3.07681e-07, No Iterations 5
Uncorrected Ubar = 8.83687, pressure gradient = 2.06674
Rey = 825.402, uTau = 0.0459677, nut+ = 0, nuEff+ = 1, y+ = 28.7298, u+ = 28.7298, k+ = 0.00463946, epsilon+ = 7.5258e-06, omega+ = 0.0180236
ExecutionTime = 0.082103 s  ClockTime = 0 s

Time = 88s

DICPCG:  Solving for Ux, Initial residual = 0.0466753, Final residual = 6.73643e-08, No Iterations 3
DICPCG:  Solving for Uy, Initial residual = 0, Final residual = 0, No Iterations 0
smoothSolver:  Solving for epsilon, Initial residual = 0.0795402, Final residual = 9.65453e-07, No Iterations 3
smoothSolver:  Solving for k, Initial residual = 0.0947658, Final residual = 4.41749e-07, No Iterations 5
Uncorrected Ubar = 11.0955, pressure gradient = -1.96291
Rey = 504.704, uTau = 0.035945, nut+ = 0, nuEff+ = 1, y+ = 22.4656, u+ = 22.4656, k+ = 0.0117205, epsilon+ = 3.00669e-05, omega+ = 0.0285037
ExecutionTime = 0.083339 s  ClockTime = 0 s

Time = 89s

DICPCG:  Solving for Ux, Initial residual = 0.0292814, Final residual = 4.77657e-08, No Iterations 3
DICPCG:  Solving for Uy, Initial residual = 0, Final residual = 0, No Iterations 0
smoothSolver:  Solving for epsilon, Initial residual = 0.23578, Final residual = 8.48082e-08, No Iterations 4
smoothSolver:  Solving for k, Initial residual = 0.111159, Final residual = 6.43835e-07, No Iterations 5
Uncorrected Ubar = 8.95635, pressure gradient = 1.92464
Rey = 913.581, uTau = 0.0483608, nut+ = 0, nuEff+ = 1, y+ = 30.2255, u+ = 30.2255, k+ = 0.010251, epsilon+ = 1.41749e-05, omega+ = 0.0153643
ExecutionTime = 0.084294 s  ClockTime = 0 s

Time = 90s

DICPCG:  Solving for Ux, Initial residual = 0.0333864, Final residual = 4.91363e-08, No Iterations 3
DICPCG:  Solving for Uy, Initial residual = 0, Final residual = 0, No Iterations 0
smoothSolver:  Solving for epsilon, Initial residual = 0.0590656, Final residual = 8.03645e-08, No Iterations 4
smoothSolver:  Solving for k, Initial residual = 0.0966534, Final residual = 8.27417e-07, No Iterations 5
Uncorrected Ubar = 10.985, pressure gradient = -1.83454
Rey = 650.278, uTau = 0.0408009, nut+ = 0, nuEff+ = 1, y+ = 25.5005, u+ = 25.5005, k+ = 0.0235822, epsilon+ = 4.42939e-05, omega+ = 0.0208697
ExecutionTime = 0.085172 s  ClockTime = 0 s

Time = 91s

DICPCG:  Solving for Ux, Initial residual = 0.0223445, Final residual = 2.92951e-08, No Iterations 3
DICPCG:  Solving for Uy, Initial residual = 0, Final residual = 0, No Iterations 0
smoothSolver:  Solving for epsilon, Initial residual = 0.206115, Final residual = 1.40107e-07, No Iterations 4
smoothSolver:  Solving for k, Initial residual = 0.113941, Final residual = 7.6546e-07, No Iterations 5
Uncorrected Ubar = 9.05602, pressure gradient = 1.80777
Rey = 1097.18, uTau = 0.052998, nut+ = 0, nuEff+ = 1, y+ = 33.1238, u+ = 33.1238, k+ = 0.0244882, epsilon+ = 2.54774e-05, omega+ = 0.0115599
ExecutionTime = 0.086007 s  ClockTime = 0 s

Time = 92s

DICPCG:  Solving for Ux, Initial residual = 0.0253957, Final residual = 3.03315e-08, No Iterations 3
DICPCG:  Solving for Uy, Initial residual = 0, Final residual = 0, No Iterations 0
smoothSolver:  Solving for epsilon, Initial residual = 0.0690612, Final residual = 1.46784e-07, No Iterations 4
smoothSolver:  Solving for k, Initial residual = 0.101636, Final residual = 1.96816e-07, No Iterations 6
Uncorrected Ubar = 10.8945, pressure gradient = -1.73239
Rey = 903.295, uTau = 0.0480878, nut+ = 0, nuEff+ = 1, y+ = 30.0549, u+ = 30.0549, k+ = 0.0560884, epsilon+ = 6.58577e-05, omega+ = 0.0130464
ExecutionTime = 0.087332 s  ClockTime = 0 s

Time = 93s

DICPCG:  Solving for Ux, Initial residual = 0.0184403, Final residual = 2.10653e-08, No Iterations 3
DICPCG:  Solving for Uy, Initial residual = 0, Final residual = 0, No Iterations 0
smoothSolver:  Solving for epsilon, Initial residual = 0.180266, Final residual = 2.08438e-07, No Iterations 4
smoothSolver:  Solving for k, Initial residual = 0.117242, Final residual = 1.98056e-07, No Iterations 6
Uncorrected Ubar = 9.13619, pressure gradient = 1.72517
Rey = 1493.99, uTau = 0.0618435, nut+ = 0, nuEff+ = 1, y+ = 38.6522, u+ = 38.6522, k+ = 0.0723546, epsilon+ = 4.53978e-05, omega+ = 0.0069715
ExecutionTime = 0.088236 s  ClockTime = 0 s

Time = 94s

DICPCG:  Solving for Ux, Initial residual = 0.0196177, Final residual = 7.17514e-08, No Iterations 3
DICPCG:  Solving for Uy, Initial residual = 0, Final residual = 0, No Iterations 0
smoothSolver:  Solving for epsilon, Initial residual = 0.116621, Final residual = 2.7313e-07, No Iterations 4
smoothSolver:  Solving for k, Initial residual = 0.11183, Final residual = 2.41084e-07, No Iterations 6
Uncorrected Ubar = 10.8242, pressure gradient = -1.66282
Rey = 1363.7, uTau = 0.0590852, nut+ = 0, nuEff+ = 1, y+ = 36.9283, u+ = 36.9283, k+ = 0.18637, epsilon+ = 0.000116254, omega+ = 0.00693091
ExecutionTime = 0.089066 s  ClockTime = 0 s

Time = 95s

DICPCG:  Solving for Ux, Initial residual = 0.017721, Final residual = 1.66606e-07, No Iterations 3
DICPCG:  Solving for Uy, Initial residual = 0, Final residual = 0, No Iterations 0
smoothSolver:  Solving for epsilon, Initial residual = 0.16768, Final residual = 2.87896e-07, No Iterations 4
smoothSolver:  Solving for k, Initial residual = 0.12266, Final residual = 2.58375e-07, No Iterations 6
Uncorrected Ubar = 9.19117, pressure gradient = 1.69449
Rey = 2083.8, uTau = 0.0773351, nut+ = 0.121131, nuEff+ = 1.12113, y+ = 48.3344, u+ = 43.1122, k+ = 0.253212, epsilon+ = 9.31319e-05, omega+ = 0.00408668
ExecutionTime = 0.089899 s  ClockTime = 0 s

Time = 96s

DICPCG:  Solving for Ux, Initial residual = 0.0178489, Final residual = 1.29328e-07, No Iterations 3
DICPCG:  Solving for Uy, Initial residual = 0, Final residual = 0, No Iterations 0
smoothSolver:  Solving for epsilon, Initial residual = 0.141054, Final residual = 3.06844e-07, No Iterations 4
smoothSolver:  Solving for k, Initial residual = 0.121468, Final residual = 2.63434e-07, No Iterations 6
Uncorrected Ubar = 10.7767, pressure gradient = -1.60184
Rey = 1818.64, uTau = 0.102402, nut+ = 1.25233, nuEff+ = 2.25233, y+ = 64.0014, u+ = 28.4156, k+ = 0.806885, epsilon+ = 0.000343667, omega+ = 0.00473242
ExecutionTime = 0.090729 s  ClockTime = 0 s

Time = 97s

DICPCG:  Solving for Ux, Initial residual = 0.0160952, Final residual = 1.8842e-07, No Iterations 3
DICPCG:  Solving for Uy, Initial residual = 0, Final residual = 0, No Iterations 0
smoothSolver:  Solving for epsilon, Initial residual = 0.143519, Final residual = 3.10233e-07, No Iterations 4
smoothSolver:  Solving for k, Initial residual = 0.139855, Final residual = 3.16683e-07, No Iterations 6
Uncorrected Ubar = 9.22921, pressure gradient = 1.68482
Rey = 2393.78, uTau = 0.143277, nut+ = 2.34988, nuEff+ = 3.34988, y+ = 89.5481, u+ = 26.7318, k+ = 1.06975, epsilon+ = 0.00118429, omega+ = 0.0123008
ExecutionTime = 0.091559 s  ClockTime = 0 s

Time = 98s

DICPCG:  Solving for Ux, Initial residual = 0.0116123, Final residual = 6.92669e-08, No Iterations 3
DICPCG:  Solving for Uy, Initial residual = 0, Final residual = 0, No Iterations 0
smoothSolver:  Solving for epsilon, Initial residual = 0.0993581, Final residual = 3.51787e-07, No Iterations 4
smoothSolver:  Solving for k, Initial residual = 0.127047, Final residual = 3.17374e-07, No Iterations 6
Uncorrected Ubar = 10.7467, pressure gradient = -1.55878
Rey = 1933.46, uTau = 0.144904, nut+ = 3.24215, nuEff+ = 4.24215, y+ = 90.565, u+ = 21.3488, k+ = 1.83208, epsilon+ = 0.00473316, omega+ = 0.0287055
ExecutionTime = 0.092405 s  ClockTime = 0 s

Time = 99s

DICPCG:  Solving for Ux, Initial residual = 0.0119194, Final residual = 8.02879e-08, No Iterations 3
DICPCG:  Solving for Uy, Initial residual = 0, Final residual = 0, No Iterations 0
smoothSolver:  Solving for epsilon, Initial residual = 0.0709624, Final residual = 3.79531e-07, No Iterations 4
smoothSolver:  Solving for k, Initial residual = 0.133875, Final residual = 3.98413e-07, No Iterations 6
Uncorrected Ubar = 9.26388, pressure gradient = 1.64465
Rey = 2357.68, uTau = 0.178602, nut+ = 4.28504, nuEff+ = 5.28504, y+ = 111.626, u+ = 21.1212, k+ = 2.02414, epsilon+ = 0.00475475, omega+ = 0.0261002
ExecutionTime = 0.093236 s  ClockTime = 0 s

Time = 100s

DICPCG:  Solving for Ux, Initial residual = 0.0100381, Final residual = 2.52946e-08, No Iterations 3
DICPCG:  Solving for Uy, Initial residual = 0, Final residual = 0, No Iterations 0
smoothSolver:  Solving for epsilon, Initial residual = 0.0754411, Final residual = 4.76453e-07, No Iterations 4
smoothSolver:  Solving for k, Initial residual = 0.108169, Final residual = 4.33523e-07, No Iterations 6
Uncorrected Ubar = 10.7091, pressure gradient = -1.5064
Rey = 1915.49, uTau = 0.166242, nut+ = 4.63588, nuEff+ = 5.63588, y+ = 103.901, u+ = 18.4357, k+ = 2.7165, epsilon+ = 0.0137746, omega+ = 0.0563411
ExecutionTime = 0.096473 s  ClockTime = 0 s

Time = 101s

DICPCG:  Solving for Ux, Initial residual = 0.0101354, Final residual = 1.94443e-08, No Iterations 3
DICPCG:  Solving for Uy, Initial residual = 0, Final residual = 0, No Iterations 0
smoothSolver:  Solving for epsilon, Initial residual = 0.0581864, Final residual = 5.30004e-07, No Iterations 4
smoothSolver:  Solving for k, Initial residual = 0.114277, Final residual = 5.57477e-07, No Iterations 6
Uncorrected Ubar = 9.30286, pressure gradient = 1.59773
Rey = 2335.71, uTau = 0.194011, nut+ = 5.29496, nuEff+ = 6.29496, y+ = 121.257, u+ = 19.2625, k+ = 2.58354, epsilon+ = 0.00930997, omega+ = 0.0400398
ExecutionTime = 0.09746 s  ClockTime = 0 s

Time = 102s

DICPCG:  Solving for Ux, Initial residual = 0.00819453, Final residual = 1.82591e-08, No Iterations 3
DICPCG:  Solving for Uy, Initial residual = 0, Final residual = 0, No Iterations 0
smoothSolver:  Solving for epsilon, Initial residual = 0.0594791, Final residual = 7.41189e-07, No Iterations 4
smoothSolver:  Solving for k, Initial residual = 0.0888774, Final residual = 6.2886e-07, No Iterations 6
Uncorrected Ubar = 10.6728, pressure gradient = -1.45981
Rey = 1960.68, uTau = 0.179655, nut+ = 5.43034, nuEff+ = 6.43034, y+ = 112.285, u+ = 17.4617, k+ = 3.1664, epsilon+ = 0.0186663, omega+ = 0.0655011
ExecutionTime = 0.098315 s  ClockTime = 0 s

Time = 103s

DICPCG:  Solving for Ux, Initial residual = 0.00809195, Final residual = 1.7184e-08, No Iterations 3
DICPCG:  Solving for Uy, Initial residual = 0, Final residual = 0, No Iterations 0
smoothSolver:  Solving for epsilon, Initial residual = 0.0509243, Final residual = 9.3747e-07, No Iterations 4
smoothSolver:  Solving for k, Initial residual = 0.0990808, Final residual = 8.51748e-07, No Iterations 6
Uncorrected Ubar = 9.33911, pressure gradient = 1.55121
Rey = 2437.35, uTau = 0.208923, nut+ = 5.99545, nuEff+ = 6.99545, y+ = 130.577, u+ = 18.666, k+ = 2.84955, epsilon+ = 0.0109962, omega+ = 0.0428768
ExecutionTime = 0.09998 s  ClockTime = 0 s

Time = 104s

DICPCG:  Solving for Ux, Initial residual = 0.00676863, Final residual = 5.37374e-07, No Iterations 2
DICPCG:  Solving for Uy, Initial residual = 0, Final residual = 0, No Iterations 0
smoothSolver:  Solving for epsilon, Initial residual = 0.044624, Final residual = 1.70216e-07, No Iterations 5
smoothSolver:  Solving for k, Initial residual = 0.0757459, Final residual = 2.05325e-07, No Iterations 7
Uncorrected Ubar = 10.6365, pressure gradient = -1.40926
Rey = 2125.29, uTau = 0.197661, nut+ = 6.18095, nuEff+ = 7.18095, y+ = 123.538, u+ = 17.2036, k+ = 3.38357, epsilon+ = 0.0184274, omega+ = 0.0605127
ExecutionTime = 0.100916 s  ClockTime = 0 s

Time = 105s

DICPCG:  Solving for Ux, Initial residual = 0.00690392, Final residual = 1.34339e-08, No Iterations 3
DICPCG:  Solving for Uy, Initial residual = 0, Final residual = 0, No Iterations 0
smoothSolver:  Solving for epsilon, Initial residual = 0.0290243, Final residual = 2.25627e-07, No Iterations 5
smoothSolver:  Solving for k, Initial residual = 0.0807897, Final residual = 3.04695e-07, No Iterations 7
Uncorrected Ubar = 9.37421, pressure gradient = 1.50947
Rey = 2606.7, uTau = 0.227532, nut+ = 6.75807, nuEff+ = 7.75807, y+ = 142.207, u+ = 18.3302, k+ = 3.05626, epsilon+ = 0.0114993, omega+ = 0.0418061
ExecutionTime = 0.10182 s  ClockTime = 0 s

Time = 106s

DICPCG:  Solving for Ux, Initial residual = 0.00567567, Final residual = 7.69358e-07, No Iterations 2
DICPCG:  Solving for Uy, Initial residual = 0, Final residual = 0, No Iterations 0
smoothSolver:  Solving for epsilon, Initial residual = 0.0256686, Final residual = 3.38097e-07, No Iterations 5
smoothSolver:  Solving for k, Initial residual = 0.0570107, Final residual = 3.96426e-07, No Iterations 7
Uncorrected Ubar = 10.6035, pressure gradient = -1.35987
Rey = 2308.09, uTau = 0.216757, nut+ = 6.95156, nuEff+ = 7.95156, y+ = 135.473, u+ = 17.0373, k+ = 3.56593, epsilon+ = 0.0182827, omega+ = 0.0569674
ExecutionTime = 0.102725 s  ClockTime = 0 s

Time = 107s

DICPCG:  Solving for Ux, Initial residual = 0.00574845, Final residual = 8.47574e-07, No Iterations 2
DICPCG:  Solving for Uy, Initial residual = 0, Final residual = 0, No Iterations 0
smoothSolver:  Solving for epsilon, Initial residual = 0.0143035, Final residual = 4.23035e-07, No Iterations 5
smoothSolver:  Solving for k, Initial residual = 0.0581952, Final residual = 5.9136e-07, No Iterations 7
Uncorrected Ubar = 9.40665, pressure gradient = 1.47101
Rey = 2749.36, uTau = 0.243502, nut+ = 7.42429, nuEff+ = 8.42429, y+ = 152.189, u+ = 18.0655, k+ = 3.23065, epsilon+ = 0.0125079, omega+ = 0.0430182
ExecutionTime = 0.103868 s  ClockTime = 0 s

Time = 108s

DICPCG:  Solving for Ux, Initial residual = 0.00474876, Final residual = 5.49011e-07, No Iterations 2
DICPCG:  Solving for Uy, Initial residual = 0, Final residual = 0, No Iterations 0
smoothSolver:  Solving for epsilon, Initial residual = 0.0158633, Final residual = 5.76951e-07, No Iterations 5
smoothSolver:  Solving for k, Initial residual = 0.0381163, Final residual = 7.10146e-07, No Iterations 7
Uncorrected Ubar = 10.5717, pressure gradient = -1.30958
Rey = 2442.74, uTau = 0.230471, nut+ = 7.49404, nuEff+ = 8.49404, y+ = 144.044, u+ = 16.9583, k+ = 3.67588, epsilon+ = 0.0190545, omega+ = 0.057596
ExecutionTime = 0.104807 s  ClockTime = 0 s

Time = 109s

DICPCG:  Solving for Ux, Initial residual = 0.00480579, Final residual = 7.24038e-07, No Iterations 2
DICPCG:  Solving for Uy, Initial residual = 0, Final residual = 0, No Iterations 0
smoothSolver:  Solving for epsilon, Initial residual = 0.00954781, Final residual = 6.3143e-07, No Iterations 5
smoothSolver:  Solving for k, Initial residual = 0.0405536, Final residual = 9.53038e-07, No Iterations 7
Uncorrected Ubar = 9.4386, pressure gradient = 1.43039
Rey = 2838.02, uTau = 0.253106, nut+ = 7.81756, nuEff+ = 8.81756, y+ = 158.191, u+ = 17.9404, k+ = 3.32348, epsilon+ = 0.0134803, omega+ = 0.0450676
ExecutionTime = 0.105698 s  ClockTime = 0 s

Time = 110s

DICPCG:  Solving for Ux, Initial residual = 0.0040041, Final residual = 5.61451e-07, No Iterations 2
DICPCG:  Solving for Uy, Initial residual = 0, Final residual = 0, No Iterations 0
smoothSolver:  Solving for epsilon, Initial residual = 0.0118163, Final residual = 7.94339e-07, No Iterations 5
smoothSolver:  Solving for k, Initial residual = 0.0287, Final residual = 2.47178e-07, No Iterations 8
Uncorrected Ubar = 10.5408, pressure gradient = -1.25968
Rey = 2529.84, uTau = 0.238431, nut+ = 7.77792, nuEff+ = 8.77792, y+ = 149.019, u+ = 16.9766, k+ = 3.7063, epsilon+ = 0.0194923, omega+ = 0.058436
ExecutionTime = 0.106556 s  ClockTime = 0 s

Time = 111s

DICPCG:  Solving for Ux, Initial residual = 0.00404588, Final residual = 5.05654e-07, No Iterations 2
DICPCG:  Solving for Uy, Initial residual = 0, Final residual = 0, No Iterations 0
smoothSolver:  Solving for epsilon, Initial residual = 0.0096234, Final residual = 8.33707e-07, No Iterations 5
smoothSolver:  Solving for k, Initial residual = 0.0320165, Final residual = 3.1617e-07, No Iterations 8
Uncorrected Ubar = 9.46957, pressure gradient = 1.38983
Rey = 2890.38, uTau = 0.25819, nut+ = 8.00912, nuEff+ = 9.00912, y+ = 161.369, u+ = 17.9117, k+ = 3.35678, epsilon+ = 0.013956, omega+ = 0.0461951
ExecutionTime = 0.107451 s  ClockTime = 0 s

Time = 112s

DICPCG:  Solving for Ux, Initial residual = 0.00346284, Final residual = 4.90664e-07, No Iterations 2
DICPCG:  Solving for Uy, Initial residual = 0, Final residual = 0, No Iterations 0
smoothSolver:  Solving for epsilon, Initial residual = 0.0100498, Final residual = 9.61218e-07, No Iterations 5
smoothSolver:  Solving for k, Initial residual = 0.0249196, Final residual = 3.3664e-07, No Iterations 8
Uncorrected Ubar = 10.5112, pressure gradient = -1.21132
Rey = 2590.65, uTau = 0.243227, nut+ = 7.92019, nuEff+ = 8.92019, y+ = 152.017, u+ = 17.0419, k+ = 3.69664, epsilon+ = 0.0193943, omega+ = 0.058294
ExecutionTime = 0.10831 s  ClockTime = 0 s

Time = 113s

DICPCG:  Solving for Ux, Initial residual = 0.00350165, Final residual = 4.9838e-07, No Iterations 2
DICPCG:  Solving for Uy, Initial residual = 0, Final residual = 0, No Iterations 0
smoothSolver:  Solving for epsilon, Initial residual = 0.00893973, Final residual = 1.98987e-07, No Iterations 6
smoothSolver:  Solving for k, Initial residual = 0.0268585, Final residual = 4.05809e-07, No Iterations 8
Uncorrected Ubar = 9.49941, pressure gradient = 1.34715
Rey = 2925.27, uTau = 0.261155, nut+ = 8.10736, nuEff+ = 9.10736, y+ = 163.222, u+ = 17.922, k+ = 3.36435, epsilon+ = 0.0140983, omega+ = 0.0465612
ExecutionTime = 0.109156 s  ClockTime = 0 s

Time = 114s

DICPCG:  Solving for Ux, Initial residual = 0.0029887, Final residual = 3.77317e-07, No Iterations 2
DICPCG:  Solving for Uy, Initial residual = 0, Final residual = 0, No Iterations 0
smoothSolver:  Solving for epsilon, Initial residual = 0.00908234, Final residual = 2.2841e-07, No Iterations 6
smoothSolver:  Solving for k, Initial residual = 0.0221145, Final residual = 4.14368e-07, No Iterations 8
Uncorrected Ubar = 10.4807, pressure gradient = -1.15802
Rey = 2640.06, uTau = 0.246693, nut+ = 8.0045, nuEff+ = 9.0045, y+ = 154.183, u+ = 17.1229, k+ = 3.67259, epsilon+ = 0.0190301, omega+ = 0.0575738
ExecutionTime = 0.110006 s  ClockTime = 0 s

Time = 115s

DICPCG:  Solving for Ux, Initial residual = 0.00302542, Final residual = 3.41326e-07, No Iterations 2
DICPCG:  Solving for Uy, Initial residual = 0, Final residual = 0, No Iterations 0
smoothSolver:  Solving for epsilon, Initial residual = 0.00796403, Final residual = 2.56933e-07, No Iterations 6
smoothSolver:  Solving for k, Initial residual = 0.023302, Final residual = 4.79283e-07, No Iterations 8
Uncorrected Ubar = 9.5299, pressure gradient = 1.30451
Rey = 2951.63, uTau = 0.263214, nut+ = 8.16889, nuEff+ = 9.16889, y+ = 164.509, u+ = 17.9421, k+ = 3.36391, epsilon+ = 0.0141159, omega+ = 0.0466254
ExecutionTime = 0.110853 s  ClockTime = 0 s

Time = 116s

DICPCG:  Solving for Ux, Initial residual = 0.00266945, Final residual = 3.51044e-07, No Iterations 2
DICPCG:  Solving for Uy, Initial residual = 0, Final residual = 0, No Iterations 0
smoothSolver:  Solving for epsilon, Initial residual = 0.00831813, Final residual = 2.79817e-07, No Iterations 6
smoothSolver:  Solving for k, Initial residual = 0.0200258, Final residual = 4.77008e-07, No Iterations 8
Uncorrected Ubar = 10.4528, pressure gradient = -1.10996
Rey = 2681.21, uTau = 0.249431, nut+ = 8.06424, nuEff+ = 9.06424, y+ = 155.895, u+ = 17.1989, k+ = 3.64778, epsilon+ = 0.0186384, omega+ = 0.0567724
ExecutionTime = 0.111702 s  ClockTime = 0 s

Time = 117s

DICPCG:  Solving for Ux, Initial residual = 0.00269826, Final residual = 3.5518e-07, No Iterations 2
DICPCG:  Solving for Uy, Initial residual = 0, Final residual = 0, No Iterations 0
smoothSolver:  Solving for epsilon, Initial residual = 0.00720817, Final residual = 3.18026e-07, No Iterations 6
smoothSolver:  Solving for k, Initial residual = 0.0207608, Final residual = 5.37364e-07, No Iterations 8
Uncorrected Ubar = 9.5577, pressure gradient = 1.2623
Rey = 2972.67, uTau = 0.264798, nut+ = 8.21392, nuEff+ = 9.21392, y+ = 165.499, u+ = 17.9618, k+ = 3.36166, epsilon+ = 0.0141011, omega+ = 0.0466076
ExecutionTime = 0.112565 s  ClockTime = 0 s

Time = 118s

DICPCG:  Solving for Ux, Initial residual = 0.00236067, Final residual = 2.56829e-07, No Iterations 2
DICPCG:  Solving for Uy, Initial residual = 0, Final residual = 0, No Iterations 0
smoothSolver:  Solving for epsilon, Initial residual = 0.0076871, Final residual = 3.33731e-07, No Iterations 6
smoothSolver:  Solving for k, Initial residual = 0.0181815, Final residual = 5.2498e-07, No Iterations 8
Uncorrected Ubar = 10.4231, pressure gradient = -1.05313
Rey = 2718.9, uTau = 0.251856, nut+ = 8.11321, nuEff+ = 9.11321, y+ = 157.41, u+ = 17.2727, k+ = 3.62276, epsilon+ = 0.0182384, omega+ = 0.0559376
ExecutionTime = 0.113472 s  ClockTime = 0 s

Time = 119s

DICPCG:  Solving for Ux, Initial residual = 0.00241143, Final residual = 2.73888e-07, No Iterations 2
DICPCG:  Solving for Uy, Initial residual = 0, Final residual = 0, No Iterations 0
smoothSolver:  Solving for epsilon, Initial residual = 0.00648097, Final residual = 3.72903e-07, No Iterations 6
smoothSolver:  Solving for k, Initial residual = 0.0186766, Final residual = 5.79755e-07, No Iterations 8
Uncorrected Ubar = 9.58752, pressure gradient = 1.21753
Rey = 2989.48, uTau = 0.266072, nut+ = 8.25047, nuEff+ = 9.25047, y+ = 166.295, u+ = 17.9769, k+ = 3.36017, epsilon+ = 0.014094, omega+ = 0.0466049
ExecutionTime = 0.114338 s  ClockTime = 0 s

Time = 120s

DICPCG:  Solving for Ux, Initial residual = 0.00212923, Final residual = 2.5896e-07, No Iterations 2
[...]
ExecutionTime = 0.961207 s  ClockTime = 1 s

Time = 971s

DICPCG:  Solving for Ux, Initial residual = 0.000379024, Final residual = 1.25624e-07, No Iterations 1
DICPCG:  Solving for Uy, Initial residual = 0, Final residual = 0, No Iterations 0
smoothSolver:  Solving for epsilon, Initial residual = 0.000443755, Final residual = 5.55898e-07, No Iterations 6
smoothSolver:  Solving for k, Initial residual = 0.0166047, Final residual = 8.02278e-07, No Iterations 9
Uncorrected Ubar = 10, pressure gradient = 2.69659
Rey = 4504.27, uTau = 0.381858, nut+ = 11.6456, nuEff+ = 12.6456, y+ = 238.661, u+ = 18.8731, k+ = 3.35261, epsilon+ = 0.0103118, omega+ = 0.0341751
ExecutionTime = 0.962163 s  ClockTime = 1 s

Time = 972s

DICPCG:  Solving for Ux, Initial residual = 0.000377026, Final residual = 1.25603e-07, No Iterations 1
DICPCG:  Solving for Uy, Initial residual = 0, Final residual = 0, No Iterations 0
smoothSolver:  Solving for epsilon, Initial residual = 0.000442056, Final residual = 5.53724e-07, No Iterations 6
smoothSolver:  Solving for k, Initial residual = 0.0166607, Final residual = 8.04978e-07, No Iterations 9
Uncorrected Ubar = 10, pressure gradient = 2.7019
Rey = 4503.8, uTau = 0.381819, nut+ = 11.6443, nuEff+ = 12.6443, y+ = 238.637, u+ = 18.873, k+ = 3.35254, epsilon+ = 0.0103125, omega+ = 0.0341781
ExecutionTime = 0.96304 s  ClockTime = 1 s

Time = 973s

DICPCG:  Solving for Ux, Initial residual = 0.00037503, Final residual = 1.25578e-07, No Iterations 1
DICPCG:  Solving for Uy, Initial residual = 0, Final residual = 0, No Iterations 0
smoothSolver:  Solving for epsilon, Initial residual = 0.000440364, Final residual = 5.51559e-07, No Iterations 6
smoothSolver:  Solving for k, Initial residual = 0.0167172, Final residual = 8.0771e-07, No Iterations 9
Uncorrected Ubar = 10, pressure gradient = 2.70718
Rey = 4503.33, uTau = 0.381781, nut+ = 11.6431, nuEff+ = 12.6431, y+ = 238.613, u+ = 18.8729, k+ = 3.35247, epsilon+ = 0.0103132, omega+ = 0.0341812
ExecutionTime = 0.963901 s  ClockTime = 1 s

Time = 974s

DICPCG:  Solving for Ux, Initial residual = 0.000373038, Final residual = 1.25548e-07, No Iterations 1
DICPCG:  Solving for Uy, Initial residual = 0, Final residual = 0, No Iterations 0
smoothSolver:  Solving for epsilon, Initial residual = 0.000438679, Final residual = 5.49403e-07, No Iterations 6
smoothSolver:  Solving for k, Initial residual = 0.0167745, Final residual = 8.10475e-07, No Iterations 9
Uncorrected Ubar = 10, pressure gradient = 2.71244
Rey = 4502.86, uTau = 0.381743, nut+ = 11.6419, nuEff+ = 12.6419, y+ = 238.589, u+ = 18.8729, k+ = 3.3524, epsilon+ = 0.010314, omega+ = 0.0341843
ExecutionTime = 0.964751 s  ClockTime = 1 s

Time = 975s

DICPCG:  Solving for Ux, Initial residual = 0.000371048, Final residual = 1.25513e-07, No Iterations 1
DICPCG:  Solving for Uy, Initial residual = 0, Final residual = 0, No Iterations 0
smoothSolver:  Solving for epsilon, Initial residual = 0.000437, Final residual = 5.47254e-07, No Iterations 6
smoothSolver:  Solving for k, Initial residual = 0.0168325, Final residual = 8.13273e-07, No Iterations 9
Uncorrected Ubar = 10, pressure gradient = 2.71767
Rey = 4502.39, uTau = 0.381704, nut+ = 11.6407, nuEff+ = 12.6407, y+ = 238.565, u+ = 18.8728, k+ = 3.35234, epsilon+ = 0.0103147, omega+ = 0.0341874
ExecutionTime = 0.965644 s  ClockTime = 1 s

Time = 976s

DICPCG:  Solving for Ux, Initial residual = 0.000369097, Final residual = 1.25474e-07, No Iterations 1
DICPCG:  Solving for Uy, Initial residual = 0, Final residual = 0, No Iterations 0
smoothSolver:  Solving for epsilon, Initial residual = 0.000435328, Final residual = 5.45114e-07, No Iterations 6
smoothSolver:  Solving for k, Initial residual = 0.0168911, Final residual = 8.16106e-07, No Iterations 9
Uncorrected Ubar = 10, pressure gradient = 2.72288
Rey = 4501.92, uTau = 0.381666, nut+ = 11.6395, nuEff+ = 12.6395, y+ = 238.541, u+ = 18.8727, k+ = 3.35227, epsilon+ = 0.0103154, omega+ = 0.0341905
ExecutionTime = 0.966508 s  ClockTime = 1 s

Time = 977s

DICPCG:  Solving for Ux, Initial residual = 0.000367229, Final residual = 1.2543e-07, No Iterations 1
DICPCG:  Solving for Uy, Initial residual = 0, Final residual = 0, No Iterations 0
smoothSolver:  Solving for epsilon, Initial residual = 0.000433662, Final residual = 5.42982e-07, No Iterations 6
smoothSolver:  Solving for k, Initial residual = 0.01695, Final residual = 8.18947e-07, No Iterations 9
Uncorrected Ubar = 10, pressure gradient = 2.72806
Rey = 4501.45, uTau = 0.381628, nut+ = 11.6383, nuEff+ = 12.6383, y+ = 238.517, u+ = 18.8726, k+ = 3.35221, epsilon+ = 0.0103161, omega+ = 0.0341935
ExecutionTime = 0.967361 s  ClockTime = 1 s

Time = 978s

DICPCG:  Solving for Ux, Initial residual = 0.000365364, Final residual = 1.2539e-07, No Iterations 1
DICPCG:  Solving for Uy, Initial residual = 0, Final residual = 0, No Iterations 0
smoothSolver:  Solving for epsilon, Initial residual = 0.000432003, Final residual = 5.40858e-07, No Iterations 6
smoothSolver:  Solving for k, Initial residual = 0.017008, Final residual = 8.21748e-07, No Iterations 9
Uncorrected Ubar = 10, pressure gradient = 2.73322
Rey = 4500.98, uTau = 0.38159, nut+ = 11.6371, nuEff+ = 12.6371, y+ = 238.494, u+ = 18.8725, k+ = 3.35214, epsilon+ = 0.0103169, omega+ = 0.0341966
ExecutionTime = 0.968216 s  ClockTime = 1 s

Time = 979s

DICPCG:  Solving for Ux, Initial residual = 0.000363501, Final residual = 1.25372e-07, No Iterations 1
DICPCG:  Solving for Uy, Initial residual = 0, Final residual = 0, No Iterations 0
smoothSolver:  Solving for epsilon, Initial residual = 0.00043035, Final residual = 5.38742e-07, No Iterations 6
smoothSolver:  Solving for k, Initial residual = 0.0170665, Final residual = 8.24571e-07, No Iterations 9
Uncorrected Ubar = 10, pressure gradient = 2.73836
Rey = 4500.5, uTau = 0.381551, nut+ = 11.6359, nuEff+ = 12.6359, y+ = 238.47, u+ = 18.8724, k+ = 3.35208, epsilon+ = 0.0103176, omega+ = 0.0341997
ExecutionTime = 0.969438 s  ClockTime = 1 s

Time = 980s

DICPCG:  Solving for Ux, Initial residual = 0.000361654, Final residual = 1.25349e-07, No Iterations 1
DICPCG:  Solving for Uy, Initial residual = 0, Final residual = 0, No Iterations 0
smoothSolver:  Solving for epsilon, Initial residual = 0.000428704, Final residual = 5.36634e-07, No Iterations 6
smoothSolver:  Solving for k, Initial residual = 0.0171257, Final residual = 8.27428e-07, No Iterations 9
Uncorrected Ubar = 10, pressure gradient = 2.74347
Rey = 4500.03, uTau = 0.381513, nut+ = 11.6347, nuEff+ = 12.6347, y+ = 238.446, u+ = 18.8724, k+ = 3.35202, epsilon+ = 0.0103184, omega+ = 0.0342028
ExecutionTime = 0.970509 s  ClockTime = 1 s

Time = 981s

DICPCG:  Solving for Ux, Initial residual = 0.000359856, Final residual = 1.25329e-07, No Iterations 1
DICPCG:  Solving for Uy, Initial residual = 0, Final residual = 0, No Iterations 0
smoothSolver:  Solving for epsilon, Initial residual = 0.000427064, Final residual = 5.34535e-07, No Iterations 6
smoothSolver:  Solving for k, Initial residual = 0.0171856, Final residual = 8.30321e-07, No Iterations 9
Uncorrected Ubar = 10, pressure gradient = 2.74856
Rey = 4499.56, uTau = 0.381475, nut+ = 11.6335, nuEff+ = 12.6335, y+ = 238.422, u+ = 18.8723, k+ = 3.35195, epsilon+ = 0.0103191, omega+ = 0.0342059
ExecutionTime = 0.971399 s  ClockTime = 1 s

Time = 982s

DICPCG:  Solving for Ux, Initial residual = 0.00035806, Final residual = 1.25354e-07, No Iterations 1
DICPCG:  Solving for Uy, Initial residual = 0, Final residual = 0, No Iterations 0
smoothSolver:  Solving for epsilon, Initial residual = 0.000425431, Final residual = 5.32443e-07, No Iterations 6
smoothSolver:  Solving for k, Initial residual = 0.0172462, Final residual = 8.33249e-07, No Iterations 9
Uncorrected Ubar = 10, pressure gradient = 2.75362
Rey = 4499.09, uTau = 0.381437, nut+ = 11.6322, nuEff+ = 12.6322, y+ = 238.398, u+ = 18.8722, k+ = 3.35189, epsilon+ = 0.0103198, omega+ = 0.034209
ExecutionTime = 0.972266 s  ClockTime = 1 s

Time = 983s

DICPCG:  Solving for Ux, Initial residual = 0.000356267, Final residual = 1.25377e-07, No Iterations 1
DICPCG:  Solving for Uy, Initial residual = 0, Final residual = 0, No Iterations 0
smoothSolver:  Solving for epsilon, Initial residual = 0.000423804, Final residual = 5.30359e-07, No Iterations 6
smoothSolver:  Solving for k, Initial residual = 0.0173076, Final residual = 8.36213e-07, No Iterations 9
Uncorrected Ubar = 10, pressure gradient = 2.75866
Rey = 4498.62, uTau = 0.381399, nut+ = 11.631, nuEff+ = 12.631, y+ = 238.374, u+ = 18.8721, k+ = 3.35183, epsilon+ = 0.0103206, omega+ = 0.0342121
ExecutionTime = 0.973134 s  ClockTime = 1 s

Time = 984s

DICPCG:  Solving for Ux, Initial residual = 0.000354477, Final residual = 1.25396e-07, No Iterations 1
DICPCG:  Solving for Uy, Initial residual = 0, Final residual = 0, No Iterations 0
smoothSolver:  Solving for epsilon, Initial residual = 0.000422183, Final residual = 5.28283e-07, No Iterations 6
smoothSolver:  Solving for k, Initial residual = 0.0173698, Final residual = 8.39215e-07, No Iterations 9
Uncorrected Ubar = 10, pressure gradient = 2.76368
Rey = 4498.15, uTau = 0.38136, nut+ = 11.6298, nuEff+ = 12.6298, y+ = 238.35, u+ = 18.872, k+ = 3.35177, epsilon+ = 0.0103213, omega+ = 0.0342152
ExecutionTime = 0.974272 s  ClockTime = 1 s

Time = 985s

DICPCG:  Solving for Ux, Initial residual = 0.000352689, Final residual = 1.25411e-07, No Iterations 1
DICPCG:  Solving for Uy, Initial residual = 0, Final residual = 0, No Iterations 0
smoothSolver:  Solving for epsilon, Initial residual = 0.000420568, Final residual = 5.26215e-07, No Iterations 6
smoothSolver:  Solving for k, Initial residual = 0.0174328, Final residual = 8.42253e-07, No Iterations 9
Uncorrected Ubar = 10, pressure gradient = 2.76867
Rey = 4497.67, uTau = 0.381322, nut+ = 11.6286, nuEff+ = 12.6286, y+ = 238.326, u+ = 18.8719, k+ = 3.3517, epsilon+ = 0.0103221, omega+ = 0.0342183
ExecutionTime = 0.975282 s  ClockTime = 1 s

Time = 986s

DICPCG:  Solving for Ux, Initial residual = 0.000350904, Final residual = 1.2542e-07, No Iterations 1
DICPCG:  Solving for Uy, Initial residual = 0, Final residual = 0, No Iterations 0
smoothSolver:  Solving for epsilon, Initial residual = 0.00041896, Final residual = 5.24155e-07, No Iterations 6
smoothSolver:  Solving for k, Initial residual = 0.0174965, Final residual = 8.4533e-07, No Iterations 9
Uncorrected Ubar = 10, pressure gradient = 2.77364
Rey = 4497.2, uTau = 0.381284, nut+ = 11.6274, nuEff+ = 12.6274, y+ = 238.303, u+ = 18.8718, k+ = 3.35164, epsilon+ = 0.0103228, omega+ = 0.0342214
ExecutionTime = 0.976236 s  ClockTime = 1 s

Time = 987s

DICPCG:  Solving for Ux, Initial residual = 0.000349121, Final residual = 1.25424e-07, No Iterations 1
DICPCG:  Solving for Uy, Initial residual = 0, Final residual = 0, No Iterations 0
smoothSolver:  Solving for epsilon, Initial residual = 0.000417358, Final residual = 5.22103e-07, No Iterations 6
smoothSolver:  Solving for k, Initial residual = 0.0175611, Final residual = 8.48446e-07, No Iterations 9
Uncorrected Ubar = 10, pressure gradient = 2.77858
Rey = 4496.73, uTau = 0.381246, nut+ = 11.6262, nuEff+ = 12.6262, y+ = 238.279, u+ = 18.8717, k+ = 3.35158, epsilon+ = 0.0103236, omega+ = 0.0342245
ExecutionTime = 0.977165 s  ClockTime = 1 s

Time = 988s

DICPCG:  Solving for Ux, Initial residual = 0.000347341, Final residual = 1.25423e-07, No Iterations 1
DICPCG:  Solving for Uy, Initial residual = 0, Final residual = 0, No Iterations 0
smoothSolver:  Solving for epsilon, Initial residual = 0.000415763, Final residual = 5.20059e-07, No Iterations 6
smoothSolver:  Solving for k, Initial residual = 0.0176265, Final residual = 8.51601e-07, No Iterations 9
Uncorrected Ubar = 10, pressure gradient = 2.7835
Rey = 4496.26, uTau = 0.381208, nut+ = 11.625, nuEff+ = 12.625, y+ = 238.255, u+ = 18.8716, k+ = 3.35152, epsilon+ = 0.0103243, omega+ = 0.0342276
ExecutionTime = 0.978044 s  ClockTime = 1 s

Time = 989s

DICPCG:  Solving for Ux, Initial residual = 0.000345563, Final residual = 1.25417e-07, No Iterations 1
DICPCG:  Solving for Uy, Initial residual = 0, Final residual = 0, No Iterations 0
smoothSolver:  Solving for epsilon, Initial residual = 0.000414173, Final residual = 5.18022e-07, No Iterations 6
smoothSolver:  Solving for k, Initial residual = 0.0176927, Final residual = 8.54796e-07, No Iterations 9
Uncorrected Ubar = 10, pressure gradient = 2.7884
Rey = 4495.78, uTau = 0.38117, nut+ = 11.6238, nuEff+ = 12.6238, y+ = 238.231, u+ = 18.8715, k+ = 3.35146, epsilon+ = 0.0103251, omega+ = 0.0342307
ExecutionTime = 0.9789 s  ClockTime = 1 s

Time = 990s

DICPCG:  Solving for Ux, Initial residual = 0.000343789, Final residual = 1.25406e-07, No Iterations 1
DICPCG:  Solving for Uy, Initial residual = 0, Final residual = 0, No Iterations 0
smoothSolver:  Solving for epsilon, Initial residual = 0.00041259, Final residual = 5.15994e-07, No Iterations 6
smoothSolver:  Solving for k, Initial residual = 0.0177597, Final residual = 8.58033e-07, No Iterations 9
Uncorrected Ubar = 10, pressure gradient = 2.79327
Rey = 4495.31, uTau = 0.381132, nut+ = 11.6226, nuEff+ = 12.6226, y+ = 238.207, u+ = 18.8714, k+ = 3.3514, epsilon+ = 0.0103258, omega+ = 0.0342338
ExecutionTime = 0.979834 s  ClockTime = 1 s

Time = 991s

DICPCG:  Solving for Ux, Initial residual = 0.000342016, Final residual = 1.25389e-07, No Iterations 1
DICPCG:  Solving for Uy, Initial residual = 0, Final residual = 0, No Iterations 0
smoothSolver:  Solving for epsilon, Initial residual = 0.000411013, Final residual = 5.13973e-07, No Iterations 6
smoothSolver:  Solving for k, Initial residual = 0.0178276, Final residual = 8.6131e-07, No Iterations 9
Uncorrected Ubar = 10, pressure gradient = 2.79812
Rey = 4494.84, uTau = 0.381094, nut+ = 11.6215, nuEff+ = 12.6215, y+ = 238.183, u+ = 18.8713, k+ = 3.35134, epsilon+ = 0.0103266, omega+ = 0.0342369
ExecutionTime = 0.980695 s  ClockTime = 1 s

Time = 992s

DICPCG:  Solving for Ux, Initial residual = 0.000340247, Final residual = 1.25367e-07, No Iterations 1
DICPCG:  Solving for Uy, Initial residual = 0, Final residual = 0, No Iterations 0
smoothSolver:  Solving for epsilon, Initial residual = 0.000409442, Final residual = 5.11959e-07, No Iterations 6
smoothSolver:  Solving for k, Initial residual = 0.0178964, Final residual = 8.6463e-07, No Iterations 9
Uncorrected Ubar = 10, pressure gradient = 2.80294
Rey = 4494.37, uTau = 0.381056, nut+ = 11.6203, nuEff+ = 12.6203, y+ = 238.16, u+ = 18.8712, k+ = 3.35129, epsilon+ = 0.0103273, omega+ = 0.0342401
ExecutionTime = 0.981547 s  ClockTime = 1 s

Time = 993s

DICPCG:  Solving for Ux, Initial residual = 0.00033848, Final residual = 1.25339e-07, No Iterations 1
DICPCG:  Solving for Uy, Initial residual = 0, Final residual = 0, No Iterations 0
smoothSolver:  Solving for epsilon, Initial residual = 0.000407877, Final residual = 5.09954e-07, No Iterations 6
smoothSolver:  Solving for k, Initial residual = 0.0179661, Final residual = 8.67993e-07, No Iterations 9
Uncorrected Ubar = 10, pressure gradient = 2.80775
Rey = 4493.89, uTau = 0.381017, nut+ = 11.6191, nuEff+ = 12.6191, y+ = 238.136, u+ = 18.8711, k+ = 3.35123, epsilon+ = 0.0103281, omega+ = 0.0342432
ExecutionTime = 0.982401 s  ClockTime = 1 s

Time = 994s

DICPCG:  Solving for Ux, Initial residual = 0.000336716, Final residual = 1.25306e-07, No Iterations 1
DICPCG:  Solving for Uy, Initial residual = 0, Final residual = 0, No Iterations 0
smoothSolver:  Solving for epsilon, Initial residual = 0.000406319, Final residual = 5.07956e-07, No Iterations 6
smoothSolver:  Solving for k, Initial residual = 0.0180367, Final residual = 8.714e-07, No Iterations 9
Uncorrected Ubar = 10, pressure gradient = 2.81252
Rey = 4493.42, uTau = 0.380979, nut+ = 11.6179, nuEff+ = 12.6179, y+ = 238.112, u+ = 18.871, k+ = 3.35117, epsilon+ = 0.0103289, omega+ = 0.0342463
ExecutionTime = 0.983303 s  ClockTime = 1 s

Time = 995s

DICPCG:  Solving for Ux, Initial residual = 0.000334954, Final residual = 1.25267e-07, No Iterations 1
DICPCG:  Solving for Uy, Initial residual = 0, Final residual = 0, No Iterations 0
smoothSolver:  Solving for epsilon, Initial residual = 0.000404766, Final residual = 5.05966e-07, No Iterations 6
smoothSolver:  Solving for k, Initial residual = 0.0181082, Final residual = 8.74851e-07, No Iterations 9
Uncorrected Ubar = 10, pressure gradient = 2.81728
Rey = 4492.95, uTau = 0.380941, nut+ = 11.6167, nuEff+ = 12.6167, y+ = 238.088, u+ = 18.8709, k+ = 3.35111, epsilon+ = 0.0103296, omega+ = 0.0342494
ExecutionTime = 0.984175 s  ClockTime = 1 s

Time = 996s

DICPCG:  Solving for Ux, Initial residual = 0.000333195, Final residual = 1.25222e-07, No Iterations 1
DICPCG:  Solving for Uy, Initial residual = 0, Final residual = 0, No Iterations 0
smoothSolver:  Solving for epsilon, Initial residual = 0.000403219, Final residual = 5.03983e-07, No Iterations 6
smoothSolver:  Solving for k, Initial residual = 0.0181807, Final residual = 8.78348e-07, No Iterations 9
Uncorrected Ubar = 10, pressure gradient = 2.82201
Rey = 4492.47, uTau = 0.380903, nut+ = 11.6155, nuEff+ = 12.6155, y+ = 238.065, u+ = 18.8708, k+ = 3.35106, epsilon+ = 0.0103304, omega+ = 0.0342525
ExecutionTime = 0.985158 s  ClockTime = 1 s

Time = 997s

DICPCG:  Solving for Ux, Initial residual = 0.000331439, Final residual = 1.25171e-07, No Iterations 1
DICPCG:  Solving for Uy, Initial residual = 0, Final residual = 0, No Iterations 0
smoothSolver:  Solving for epsilon, Initial residual = 0.000401679, Final residual = 5.02008e-07, No Iterations 6
smoothSolver:  Solving for k, Initial residual = 0.0182541, Final residual = 8.81891e-07, No Iterations 9
Uncorrected Ubar = 10, pressure gradient = 2.82672
Rey = 4492, uTau = 0.380865, nut+ = 11.6143, nuEff+ = 12.6143, y+ = 238.041, u+ = 18.8707, k+ = 3.351, epsilon+ = 0.0103312, omega+ = 0.0342556
ExecutionTime = 0.986453 s  ClockTime = 1 s

Time = 998s

DICPCG:  Solving for Ux, Initial residual = 0.000329685, Final residual = 1.25114e-07, No Iterations 1
DICPCG:  Solving for Uy, Initial residual = 0, Final residual = 0, No Iterations 0
smoothSolver:  Solving for epsilon, Initial residual = 0.000400144, Final residual = 5.0004e-07, No Iterations 6
smoothSolver:  Solving for k, Initial residual = 0.0183285, Final residual = 8.85481e-07, No Iterations 9
Uncorrected Ubar = 10, pressure gradient = 2.8314
Rey = 4491.53, uTau = 0.380827, nut+ = 11.6131, nuEff+ = 12.6131, y+ = 238.017, u+ = 18.8706, k+ = 3.35094, epsilon+ = 0.0103319, omega+ = 0.0342588
ExecutionTime = 0.987427 s  ClockTime = 1 s

Time = 999s

DICPCG:  Solving for Ux, Initial residual = 0.000327934, Final residual = 1.25051e-07, No Iterations 1
DICPCG:  Solving for Uy, Initial residual = 0, Final residual = 0, No Iterations 0
smoothSolver:  Solving for epsilon, Initial residual = 0.000398615, Final residual = 4.9808e-07, No Iterations 6
smoothSolver:  Solving for k, Initial residual = 0.0184033, Final residual = 8.89087e-07, No Iterations 9
Uncorrected Ubar = 10, pressure gradient = 2.83606
Rey = 4491.05, uTau = 0.380789, nut+ = 11.6119, nuEff+ = 12.6119, y+ = 237.993, u+ = 18.8705, k+ = 3.35089, epsilon+ = 0.0103327, omega+ = 0.0342619
ExecutionTime = 0.988304 s  ClockTime = 1 s

Time = 1000s

DICPCG:  Solving for Ux, Initial residual = 0.000326186, Final residual = 1.24981e-07, No Iterations 1
DICPCG:  Solving for Uy, Initial residual = 0, Final residual = 0, No Iterations 0
smoothSolver:  Solving for epsilon, Initial residual = 0.000397093, Final residual = 4.96127e-07, No Iterations 6
smoothSolver:  Solving for k, Initial residual = 0.0184769, Final residual = 8.92637e-07, No Iterations 9
Uncorrected Ubar = 10, pressure gradient = 2.8407
Rey = 4490.58, uTau = 0.380751, nut+ = 11.6107, nuEff+ = 12.6107, y+ = 237.97, u+ = 18.8704, k+ = 3.35083, epsilon+ = 0.0103335, omega+ = 0.034265
ExecutionTime = 0.991245 s  ClockTime = 1 s

End

