/*---------------------------------------------------------------------------*\
  =========                 |
  \\      /  F ield         | OpenFOAM: The Open Source CFD Toolbox
   \\    /   O peration     | Website:  https://openfoam.org
    \\  /    A nd           | Version:  12
     \\/     M anipulation  |
\*---------------------------------------------------------------------------*/
Build  : 12-cc05c1b03c38
Exec   : boundaryFoam
Date   : Oct 04 2024
Time   : 23:19:49
Host   : "DESKTOP-KBPC6IC"
PID    : 25156
I/O    : uncollated
Case   : /home/as/openfoam/OpenFOAM-12/test/boundaryLayer/boundaryWallFunctionsProfile
nProcs : 1
sigFpe : Enabling floating point exception trapping (FOAM_SIGFPE).
fileModificationChecking : Monitoring run-time modified files using timeStampMaster (fileModificationSkew 10)
allowSystemOperations : Allowing user-supplied system call operations

// * * * * * * * * * * * * * * * * * * * * * * * * * * * * * * * * * * * * * //
Create time

Create mesh for time = 0

Reading field U

Creating face flux

Selecting viscosity model constant
Selecting turbulence model type RAS
Selecting RAS turbulence model kEpsilon
RAS
{
    model           kEpsilon;
    turbulence      on;
    printCoeffs     on;
    Cmu             0.09;
    C1              1.44;
    C2              1.92;
    C3              0;
    sigmak          1;
    sigmaEps        1.3;
}

No fvModels present
No fvConstraints present
Generating wall data for patch: lowerWall
    Height to first cell centre y0 = 0.000625

Starting time loop

Time = 1s

DICPCG:  Solving for Ux, Initial residual = 1, Final residual = 1.09446e-08, No Iterations 4
DICPCG:  Solving for Uy, Initial residual = 0, Final residual = 0, No Iterations 0
smoothSolver:  Solving for epsilon, Initial residual = 0.0250456, Final residual = 2.98695e-07, No Iterations 7
smoothSolver:  Solving for k, Initial residual = 1, Final residual = 3.17202e-07, No Iterations 11
Uncorrected Ubar = 0.988503, pressure gradient = 2470.89
Rey = 60.4411, uTau = 1.2439, nut+ = 0, nuEff+ = 1, y+ = 7.77438, u+ = 7.77438, k+ = 2.34557e-10, epsilon+ = 2.13858e-11, omega+ = 1.01306
ExecutionTime = 0.006592 s  ClockTime = 0 s

Time = 2s

DICPCG:  Solving for Ux, Initial residual = 0.998752, Final residual = 1.35076e-07, No Iterations 3
DICPCG:  Solving for Uy, Initial residual = 0, Final residual = 0, No Iterations 0
smoothSolver:  Solving for epsilon, Initial residual = 0.728412, Final residual = 5.2312e-07, No Iterations 6
smoothSolver:  Solving for k, Initial residual = 0.806182, Final residual = 5.48748e-07, No Iterations 9
Uncorrected Ubar = 27.7426, pressure gradient = -2394.02
Rey = 15.3598, uTau = 0.627065, nut+ = 0, nuEff+ = 1, y+ = 3.91916, u+ = 3.91916, k+ = 5.68672e-10, epsilon+ = 1.20182e-10, omega+ = 2.34821
ExecutionTime = 0.007583 s  ClockTime = 0 s

Time = 3s

DICPCG:  Solving for Ux, Initial residual = 0.910439, Final residual = 1.4179e-07, No Iterations 3
DICPCG:  Solving for Uy, Initial residual = 0, Final residual = 0, No Iterations 0
smoothSolver:  Solving for epsilon, Initial residual = 0.555184, Final residual = 5.6601e-07, No Iterations 4
smoothSolver:  Solving for k, Initial residual = 0.552731, Final residual = 2.99531e-07, No Iterations 10
Uncorrected Ubar = -7.31679, pressure gradient = 2354.13
Rey = 52.4071, uTau = 1.15828, nut+ = 0, nuEff+ = 1, y+ = 7.23927, u+ = 7.23927, k+ = 7.82194e-11, epsilon+ = 6.36058e-12, omega+ = 0.903524
ExecutionTime = 0.008454 s  ClockTime = 0 s

Time = 4s

DICPCG:  Solving for Ux, Initial residual = 0.984613, Final residual = 1.32823e-07, No Iterations 3
DICPCG:  Solving for Uy, Initial residual = 0, Final residual = 0, No Iterations 0
smoothSolver:  Solving for epsilon, Initial residual = 0.254974, Final residual = 3.31096e-07, No Iterations 5
smoothSolver:  Solving for k, Initial residual = 0.107593, Final residual = 3.15483e-07, No Iterations 10
Uncorrected Ubar = 26.9162, pressure gradient = -2284.18
Rey = 18.5619, uTau = 0.689337, nut+ = 0, nuEff+ = 1, y+ = 4.30836, u+ = 4.30836, k+ = 1.41086e-10, epsilon+ = 2.37951e-11, omega+ = 1.87397
ExecutionTime = 0.009316 s  ClockTime = 0 s

Time = 5s

DICPCG:  Solving for Ux, Initial residual = 0.898475, Final residual = 1.3768e-07, No Iterations 3
DICPCG:  Solving for Uy, Initial residual = 0, Final residual = 0, No Iterations 0
smoothSolver:  Solving for epsilon, Initial residual = 0.496827, Final residual = 7.86654e-07, No Iterations 5
smoothSolver:  Solving for k, Initial residual = 0.205157, Final residual = 3.69187e-07, No Iterations 10
Uncorrected Ubar = -6.51343, pressure gradient = 2243.69
Rey = 47.0784, uTau = 1.09782, nut+ = 0, nuEff+ = 1, y+ = 6.86137, u+ = 6.86137, k+ = 2.82353e-11, epsilon+ = 2.36316e-12, omega+ = 0.929948
ExecutionTime = 0.010191 s  ClockTime = 0 s

Time = 6s

DICPCG:  Solving for Ux, Initial residual = 0.973089, Final residual = 1.3437e-07, No Iterations 3
DICPCG:  Solving for Uy, Initial residual = 0, Final residual = 0, No Iterations 0
smoothSolver:  Solving for epsilon, Initial residual = 0.203924, Final residual = 3.30626e-07, No Iterations 6
smoothSolver:  Solving for k, Initial residual = 0.191714, Final residual = 7.71218e-07, No Iterations 9
Uncorrected Ubar = 26.1291, pressure gradient = -2178.81
Rey = 19.8383, uTau = 0.712643, nut+ = 0, nuEff+ = 1, y+ = 4.45402, u+ = 4.45402, k+ = 5.75377e-11, epsilon+ = 6.75516e-12, omega+ = 1.30449
ExecutionTime = 0.011051 s  ClockTime = 0 s

Time = 7s

DICPCG:  Solving for Ux, Initial residual = 0.887109, Final residual = 1.336e-07, No Iterations 3
DICPCG:  Solving for Uy, Initial residual = 0, Final residual = 0, No Iterations 0
smoothSolver:  Solving for epsilon, Initial residual = 0.367965, Final residual = 2.89296e-07, No Iterations 6
smoothSolver:  Solving for k, Initial residual = 0.176962, Final residual = 3.61226e-07, No Iterations 10
Uncorrected Ubar = -5.74674, pressure gradient = 2138.85
Rey = 43.2979, uTau = 1.05282, nut+ = 0, nuEff+ = 1, y+ = 6.58011, u+ = 6.58011, k+ = 1.7374e-11, epsilon+ = 1.21774e-12, omega+ = 0.778776
ExecutionTime = 0.011917 s  ClockTime = 0 s

Time = 8s

DICPCG:  Solving for Ux, Initial residual = 0.962749, Final residual = 1.35037e-07, No Iterations 3
DICPCG:  Solving for Uy, Initial residual = 0, Final residual = 0, No Iterations 0
smoothSolver:  Solving for epsilon, Initial residual = 0.401733, Final residual = 2.88543e-07, No Iterations 6
smoothSolver:  Solving for k, Initial residual = 0.21915, Final residual = 4.71532e-07, No Iterations 9
Uncorrected Ubar = 25.3791, pressure gradient = -2078
Rey = 20.1141, uTau = 0.71758, nut+ = 0, nuEff+ = 1, y+ = 4.48488, u+ = 4.48488, k+ = 4.42872e-11, epsilon+ = 3.71871e-12, omega+ = 0.932978
ExecutionTime = 0.01331 s  ClockTime = 0 s

Time = 9s

DICPCG:  Solving for Ux, Initial residual = 0.87695, Final residual = 1.30646e-07, No Iterations 3
DICPCG:  Solving for Uy, Initial residual = 0, Final residual = 0, No Iterations 0
smoothSolver:  Solving for epsilon, Initial residual = 0.312021, Final residual = 5.46267e-07, No Iterations 5
smoothSolver:  Solving for k, Initial residual = 0.122561, Final residual = 5.69423e-07, No Iterations 9
Uncorrected Ubar = -5.01536, pressure gradient = 2039.11
Rey = 40.3762, uTau = 1.01668, nut+ = 0, nuEff+ = 1, y+ = 6.35423, u+ = 6.35423, k+ = 1.78285e-11, epsilon+ = 1.09284e-12, omega+ = 0.681085
ExecutionTime = 0.01432 s  ClockTime = 0 s

Time = 10s

DICPCG:  Solving for Ux, Initial residual = 0.953193, Final residual = 1.34895e-07, No Iterations 3
DICPCG:  Solving for Uy, Initial residual = 0, Final residual = 0, No Iterations 0
smoothSolver:  Solving for epsilon, Initial residual = 0.35144, Final residual = 5.34644e-07, No Iterations 5
smoothSolver:  Solving for k, Initial residual = 0.200956, Final residual = 8.45398e-07, No Iterations 8
Uncorrected Ubar = 24.6641, pressure gradient = -1981.7
Rey = 19.8759, uTau = 0.713318, nut+ = 0, nuEff+ = 1, y+ = 4.45824, u+ = 4.45824, k+ = 4.88161e-11, epsilon+ = 3.64432e-12, omega+ = 0.82949
ExecutionTime = 0.015186 s  ClockTime = 0 s

Time = 11s

DICPCG:  Solving for Ux, Initial residual = 0.867278, Final residual = 1.28379e-07, No Iterations 3
DICPCG:  Solving for Uy, Initial residual = 0, Final residual = 0, No Iterations 0
smoothSolver:  Solving for epsilon, Initial residual = 0.257868, Final residual = 2.862e-07, No Iterations 5
smoothSolver:  Solving for k, Initial residual = 0.0994883, Final residual = 8.67557e-07, No Iterations 8
Uncorrected Ubar = -4.31781, pressure gradient = 1944.15
Rey = 37.9635, uTau = 0.985832, nut+ = 0, nuEff+ = 1, y+ = 6.16145, u+ = 6.16145, k+ = 2.39245e-11, epsilon+ = 1.34644e-12, omega+ = 0.625319
ExecutionTime = 0.016053 s  ClockTime = 0 s

Time = 12s

DICPCG:  Solving for Ux, Initial residual = 0.941103, Final residual = 1.33881e-07, No Iterations 3
DICPCG:  Solving for Uy, Initial residual = 0, Final residual = 0, No Iterations 0
smoothSolver:  Solving for epsilon, Initial residual = 0.332942, Final residual = 2.56689e-07, No Iterations 5
smoothSolver:  Solving for k, Initial residual = 0.196299, Final residual = 4.44945e-07, No Iterations 8
Uncorrected Ubar = 23.9825, pressure gradient = -1889.77
Rey = 19.3665, uTau = 0.704119, nut+ = 0, nuEff+ = 1, y+ = 4.40074, u+ = 4.40074, k+ = 6.88295e-11, epsilon+ = 4.84323e-12, omega+ = 0.781841
ExecutionTime = 0.016905 s  ClockTime = 0 s

Time = 13s

DICPCG:  Solving for Ux, Initial residual = 0.858012, Final residual = 1.26509e-07, No Iterations 3
DICPCG:  Solving for Uy, Initial residual = 0, Final residual = 0, No Iterations 0
smoothSolver:  Solving for epsilon, Initial residual = 0.245804, Final residual = 5.43534e-07, No Iterations 4
smoothSolver:  Solving for k, Initial residual = 0.0920676, Final residual = 4.26277e-07, No Iterations 8
Uncorrected Ubar = -3.65259, pressure gradient = 1853.68
Rey = 35.8798, uTau = 0.958396, nut+ = 0, nuEff+ = 1, y+ = 5.98998, u+ = 5.98998, k+ = 3.65836e-11, epsilon+ = 2.07088e-12, omega+ = 0.628966
ExecutionTime = 0.017793 s  ClockTime = 0 s

Time = 14s

DICPCG:  Solving for Ux, Initial residual = 0.928366, Final residual = 1.32498e-07, No Iterations 3
DICPCG:  Solving for Uy, Initial residual = 0, Final residual = 0, No Iterations 0
smoothSolver:  Solving for epsilon, Initial residual = 0.307115, Final residual = 5.26953e-07, No Iterations 4
smoothSolver:  Solving for k, Initial residual = 0.190659, Final residual = 7.73742e-07, No Iterations 7
Uncorrected Ubar = 23.3326, pressure gradient = -1802.04
Rey = 18.7114, uTau = 0.692107, nut+ = 0, nuEff+ = 1, y+ = 4.32567, u+ = 4.32567, k+ = 1.05017e-10, epsilon+ = 7.49815e-12, omega+ = 0.793325
ExecutionTime = 0.019124 s  ClockTime = 0 s

Time = 15s

DICPCG:  Solving for Ux, Initial residual = 0.848695, Final residual = 1.24816e-07, No Iterations 3
DICPCG:  Solving for Uy, Initial residual = 0, Final residual = 0, No Iterations 0
smoothSolver:  Solving for epsilon, Initial residual = 0.222365, Final residual = 2.92349e-07, No Iterations 4
smoothSolver:  Solving for k, Initial residual = 0.0894732, Final residual = 7.00723e-07, No Iterations 7
Uncorrected Ubar = -3.01823, pressure gradient = 1767.47
Rey = 34.0273, uTau = 0.933327, nut+ = 0, nuEff+ = 1, y+ = 5.83329, u+ = 5.83329, k+ = 5.95938e-11, epsilon+ = 3.39423e-12, omega+ = 0.632846
ExecutionTime = 0.020011 s  ClockTime = 0 s

Time = 16s

DICPCG:  Solving for Ux, Initial residual = 0.915577, Final residual = 1.30955e-07, No Iterations 3
DICPCG:  Solving for Uy, Initial residual = 0, Final residual = 0, No Iterations 0
smoothSolver:  Solving for epsilon, Initial residual = 0.295703, Final residual = 2.86243e-07, No Iterations 4
smoothSolver:  Solving for k, Initial residual = 0.188669, Final residual = 4.09829e-07, No Iterations 7
Uncorrected Ubar = 22.713, pressure gradient = -1718.35
Rey = 17.9788, uTau = 0.678422, nut+ = 0, nuEff+ = 1, y+ = 4.24014, u+ = 4.24014, k+ = 1.7311e-10, epsilon+ = 1.2547e-11, omega+ = 0.805331
ExecutionTime = 0.020861 s  ClockTime = 0 s

Time = 17s

DICPCG:  Solving for Ux, Initial residual = 0.83957, Final residual = 1.23258e-07, No Iterations 3
DICPCG:  Solving for Uy, Initial residual = 0, Final residual = 0, No Iterations 0
smoothSolver:  Solving for epsilon, Initial residual = 0.218292, Final residual = 1.59249e-07, No Iterations 4
smoothSolver:  Solving for k, Initial residual = 0.0898156, Final residual = 3.65133e-07, No Iterations 7
Uncorrected Ubar = -2.41333, pressure gradient = 1685.3
Rey = 32.3487, uTau = 0.910015, nut+ = 0, nuEff+ = 1, y+ = 5.68759, u+ = 5.68759, k+ = 9.96671e-11, epsilon+ = 5.94838e-12, omega+ = 0.663138
ExecutionTime = 0.021714 s  ClockTime = 0 s

Time = 18s

DICPCG:  Solving for Ux, Initial residual = 0.902883, Final residual = 1.29336e-07, No Iterations 3
DICPCG:  Solving for Uy, Initial residual = 0, Final residual = 0, No Iterations 0
smoothSolver:  Solving for epsilon, Initial residual = 0.281649, Final residual = 1.682e-07, No Iterations 4
smoothSolver:  Solving for k, Initial residual = 0.181188, Final residual = 6.94526e-07, No Iterations 6
Uncorrected Ubar = 22.1222, pressure gradient = -1638.52
Rey = 17.2079, uTau = 0.663718, nut+ = 0, nuEff+ = 1, y+ = 4.14824, u+ = 4.14824, k+ = 2.87526e-10, epsilon+ = 2.17763e-11, omega+ = 0.841519
ExecutionTime = 0.02263 s  ClockTime = 0 s

Time = 19s

DICPCG:  Solving for Ux, Initial residual = 0.830289, Final residual = 1.2174e-07, No Iterations 3
DICPCG:  Solving for Uy, Initial residual = 0, Final residual = 0, No Iterations 0
smoothSolver:  Solving for epsilon, Initial residual = 0.205078, Final residual = 9.56577e-08, No Iterations 4
smoothSolver:  Solving for k, Initial residual = 0.0905217, Final residual = 6.1998e-07, No Iterations 6
Uncorrected Ubar = -1.83652, pressure gradient = 1606.98
Rey = 30.8082, uTau = 0.888082, nut+ = 0, nuEff+ = 1, y+ = 5.55051, u+ = 5.55051, k+ = 1.69145e-10, epsilon+ = 1.04256e-11, omega+ = 0.684859
ExecutionTime = 0.023555 s  ClockTime = 0 s

Time = 20s

DICPCG:  Solving for Ux, Initial residual = 0.890261, Final residual = 1.27673e-07, No Iterations 3
DICPCG:  Solving for Uy, Initial residual = 0, Final residual = 0, No Iterations 0
smoothSolver:  Solving for epsilon, Initial residual = 0.274137, Final residual = 1.09429e-07, No Iterations 4
smoothSolver:  Solving for k, Initial residual = 0.178526, Final residual = 3.70954e-07, No Iterations 6
Uncorrected Ubar = 21.5588, pressure gradient = -1562.37
Rey = 16.4224, uTau = 0.648394, nut+ = 0, nuEff+ = 1, y+ = 4.05246, u+ = 4.05246, k+ = 4.92029e-10, epsilon+ = 3.86438e-11, omega+ = 0.872663
ExecutionTime = 0.024404 s  ClockTime = 0 s

Time = 21s

DICPCG:  Solving for Ux, Initial residual = 0.820832, Final residual = 1.20237e-07, No Iterations 3
DICPCG:  Solving for Uy, Initial residual = 0, Final residual = 0, No Iterations 0
smoothSolver:  Solving for epsilon, Initial residual = 0.202081, Final residual = 8.4831e-07, No Iterations 3
smoothSolver:  Solving for k, Initial residual = 0.0920517, Final residual = 3.32459e-07, No Iterations 6
Uncorrected Ubar = -1.28651, pressure gradient = 1532.32
Rey = 29.3819, uTau = 0.867281, nut+ = 0, nuEff+ = 1, y+ = 5.42051, u+ = 5.42051, k+ = 2.88646e-10, epsilon+ = 1.87197e-11, omega+ = 0.720594
ExecutionTime = 0.025234 s  ClockTime = 0 s

Time = 22s

DICPCG:  Solving for Ux, Initial residual = 0.877489, Final residual = 1.25951e-07, No Iterations 3
DICPCG:  Solving for Uy, Initial residual = 0, Final residual = 0, No Iterations 0
smoothSolver:  Solving for epsilon, Initial residual = 0.264974, Final residual = 7.8565e-08, No Iterations 4
smoothSolver:  Solving for k, Initial residual = 0.175131, Final residual = 6.59395e-07, No Iterations 5
Uncorrected Ubar = 21.0216, pressure gradient = -1489.75
Rey = 15.6371, uTau = 0.632701, nut+ = 0, nuEff+ = 1, y+ = 3.95438, u+ = 3.95438, k+ = 8.39201e-10, epsilon+ = 6.93682e-11, omega+ = 0.918443
ExecutionTime = 0.026068 s  ClockTime = 0 s

Time = 23s

DICPCG:  Solving for Ux, Initial residual = 0.811346, Final residual = 1.18758e-07, No Iterations 3
DICPCG:  Solving for Uy, Initial residual = 0, Final residual = 0, No Iterations 0
smoothSolver:  Solving for epsilon, Initial residual = 0.193527, Final residual = 7.82782e-07, No Iterations 3
smoothSolver:  Solving for k, Initial residual = 0.0933595, Final residual = 5.93749e-07, No Iterations 5
Uncorrected Ubar = -0.762042, pressure gradient = 1461.13
Rey = 28.0531, uTau = 0.847442, nut+ = 0, nuEff+ = 1, y+ = 5.29651, u+ = 5.29651, k+ = 4.9435e-10, epsilon+ = 3.33498e-11, omega+ = 0.749577
ExecutionTime = 0.0269 s  ClockTime = 0 s

Time = 24s

DICPCG:  Solving for Ux, Initial residual = 0.864492, Final residual = 1.24173e-07, No Iterations 3
DICPCG:  Solving for Uy, Initial residual = 0, Final residual = 0, No Iterations 0
smoothSolver:  Solving for epsilon, Initial residual = 0.258993, Final residual = 6.26777e-08, No Iterations 4
smoothSolver:  Solving for k, Initial residual = 0.173768, Final residual = 3.6588e-07, No Iterations 5
Uncorrected Ubar = 20.5094, pressure gradient = -1420.49
Rey = 14.8615, uTau = 0.616809, nut+ = 0, nuEff+ = 1, y+ = 3.85506, u+ = 3.85506, k+ = 1.45162e-09, epsilon+ = 1.2558e-10, omega+ = 0.961225
ExecutionTime = 0.027738 s  ClockTime = 0 s

Time = 25s

DICPCG:  Solving for Ux, Initial residual = 0.801798, Final residual = 1.17288e-07, No Iterations 3
DICPCG:  Solving for Uy, Initial residual = 0, Final residual = 0, No Iterations 0
smoothSolver:  Solving for epsilon, Initial residual = 0.190185, Final residual = 7.48864e-07, No Iterations 3
smoothSolver:  Solving for k, Initial residual = 0.0949168, Final residual = 3.3167e-07, No Iterations 5
Uncorrected Ubar = -0.261943, pressure gradient = 1393.27
Rey = 26.8093, uTau = 0.828443, nut+ = 0, nuEff+ = 1, y+ = 5.17777, u+ = 5.17777, k+ = 8.48139e-10, epsilon+ = 6.00309e-11, omega+ = 0.786439
ExecutionTime = 0.028563 s  ClockTime = 0 s

Time = 26s

DICPCG:  Solving for Ux, Initial residual = 0.851419, Final residual = 1.22365e-07, No Iterations 3
DICPCG:  Solving for Uy, Initial residual = 0, Final residual = 0, No Iterations 0
smoothSolver:  Solving for epsilon, Initial residual = 0.252243, Final residual = 5.41154e-08, No Iterations 4
smoothSolver:  Solving for k, Initial residual = 0.17153, Final residual = 8.6267e-07, No Iterations 4
Uncorrected Ubar = 20.0211, pressure gradient = -1354.44
Rey = 14.1015, uTau = 0.600832, nut+ = 0, nuEff+ = 1, y+ = 3.7552, u+ = 3.7552, k+ = 2.5055e-09, epsilon+ = 2.28692e-10, omega+ = 1.01418
ExecutionTime = 0.029742 s  ClockTime = 0 s

Time = 27s

DICPCG:  Solving for Ux, Initial residual = 0.791805, Final residual = 1.15767e-07, No Iterations 3
DICPCG:  Solving for Uy, Initial residual = 0, Final residual = 0, No Iterations 0
smoothSolver:  Solving for epsilon, Initial residual = 0.184147, Final residual = 7.45677e-07, No Iterations 3
smoothSolver:  Solving for k, Initial residual = 0.0962284, Final residual = 8.65453e-07, No Iterations 4
Uncorrected Ubar = 0.214919, pressure gradient = 1328.57
Rey = 25.6411, uTau = 0.810193, nut+ = 0, nuEff+ = 1, y+ = 5.0637, u+ = 5.0637, k+ = 1.4568e-09, epsilon+ = 1.07477e-10, omega+ = 0.819736
ExecutionTime = 0.030985 s  ClockTime = 0 s

Time = 28s

DICPCG:  Solving for Ux, Initial residual = 0.838254, Final residual = 1.20531e-07, No Iterations 3
DICPCG:  Solving for Uy, Initial residual = 0, Final residual = 0, No Iterations 0
smoothSolver:  Solving for epsilon, Initial residual = 0.247055, Final residual = 5.00197e-08, No Iterations 4
smoothSolver:  Solving for k, Initial residual = 0.169902, Final residual = 5.77678e-07, No Iterations 4
Uncorrected Ubar = 19.5554, pressure gradient = -1291.45
Rey = 13.3612, uTau = 0.584848, nut+ = 0, nuEff+ = 1, y+ = 3.6553, u+ = 3.6553, k+ = 4.35691e-09, epsilon+ = 4.18479e-10, omega+ = 1.06722
ExecutionTime = 0.032114 s  ClockTime = 0 s

Time = 29s

DICPCG:  Solving for Ux, Initial residual = 0.781681, Final residual = 1.14238e-07, No Iterations 3
DICPCG:  Solving for Uy, Initial residual = 0, Final residual = 0, No Iterations 0
smoothSolver:  Solving for epsilon, Initial residual = 0.18056, Final residual = 7.54056e-07, No Iterations 3
smoothSolver:  Solving for k, Initial residual = 0.097584, Final residual = 6.09288e-07, No Iterations 4
Uncorrected Ubar = 0.669625, pressure gradient = 1266.88
Rey = 24.541, uTau = 0.792622, nut+ = 0, nuEff+ = 1, y+ = 4.95389, u+ = 4.95389, k+ = 2.50514e-09, epsilon+ = 1.93318e-10, omega+ = 0.857427
ExecutionTime = 0.033776 s  ClockTime = 0 s

Time = 30s

DICPCG:  Solving for Ux, Initial residual = 0.824983, Final residual = 1.18671e-07, No Iterations 3
DICPCG:  Solving for Uy, Initial residual = 0, Final residual = 0, No Iterations 0
smoothSolver:  Solving for epsilon, Initial residual = 0.241665, Final residual = 4.81077e-08, No Iterations 4
smoothSolver:  Solving for k, Initial residual = 0.168093, Final residual = 4.21049e-07, No Iterations 4
Uncorrected Ubar = 19.1113, pressure gradient = -1231.38
Rey = 12.6432, uTau = 0.568916, nut+ = 0, nuEff+ = 1, y+ = 3.55572, u+ = 3.55572, k+ = 7.57662e-09, epsilon+ = 7.69206e-10, omega+ = 1.12804
ExecutionTime = 0.035846 s  ClockTime = 0 s

Time = 31s

DICPCG:  Solving for Ux, Initial residual = 0.771424, Final residual = 1.12698e-07, No Iterations 3
DICPCG:  Solving for Uy, Initial residual = 0, Final residual = 0, No Iterations 0
smoothSolver:  Solving for epsilon, Initial residual = 0.175885, Final residual = 7.75393e-07, No Iterations 3
smoothSolver:  Solving for k, Initial residual = 0.0987853, Final residual = 4.70459e-07, No Iterations 4
Uncorrected Ubar = 1.1032, pressure gradient = 1208.06
Rey = 23.5028, uTau = 0.775675, nut+ = 0, nuEff+ = 1, y+ = 4.84797, u+ = 4.84797, k+ = 4.31107e-09, epsilon+ = 3.46833e-10, omega+ = 0.893908
ExecutionTime = 0.037972 s  ClockTime = 0 s

Time = 32s

DICPCG:  Solving for Ux, Initial residual = 0.811321, Final residual = 1.16746e-07, No Iterations 3
DICPCG:  Solving for Uy, Initial residual = 0, Final residual = 0, No Iterations 0
smoothSolver:  Solving for epsilon, Initial residual = 0.237058, Final residual = 4.77797e-08, No Iterations 4
smoothSolver:  Solving for k, Initial residual = 0.166695, Final residual = 3.34705e-07, No Iterations 4
Uncorrected Ubar = 18.6879, pressure gradient = -1174.1
Rey = 11.9488, uTau = 0.553073, nut+ = 0, nuEff+ = 1, y+ = 3.45671, u+ = 3.45671, k+ = 1.32342e-08, epsilon+ = 1.41933e-09, omega+ = 1.19163
ExecutionTime = 0.043858 s  ClockTime = 0 s

Time = 33s

DICPCG:  Solving for Ux, Initial residual = 0.761024, Final residual = 1.11143e-07, No Iterations 3
DICPCG:  Solving for Uy, Initial residual = 0, Final residual = 0, No Iterations 0
smoothSolver:  Solving for epsilon, Initial residual = 0.172276, Final residual = 8.02548e-07, No Iterations 3
smoothSolver:  Solving for k, Initial residual = 0.099963, Final residual = 3.94704e-07, No Iterations 4
Uncorrected Ubar = 1.51663, pressure gradient = 1151.98
Rey = 22.5215, uTau = 0.759309, nut+ = 0, nuEff+ = 1, y+ = 4.74568, u+ = 4.74568, k+ = 7.42654e-09, epsilon+ = 6.23534e-10, omega+ = 0.932892
ExecutionTime = 0.045921 s  ClockTime = 0 s

Time = 34s

DICPCG:  Solving for Ux, Initial residual = 0.797511, Final residual = 1.14794e-07, No Iterations 3
DICPCG:  Solving for Uy, Initial residual = 0, Final residual = 0, No Iterations 0
smoothSolver:  Solving for epsilon, Initial residual = 0.232526, Final residual = 4.82269e-08, No Iterations 4
smoothSolver:  Solving for k, Initial residual = 0.165226, Final residual = 2.88934e-07, No Iterations 4
Uncorrected Ubar = 18.2842, pressure gradient = -1119.48
Rey = 11.2791, uTau = 0.53735, nut+ = 0, nuEff+ = 1, y+ = 3.35844, u+ = 3.35844, k+ = 2.31492e-08, epsilon+ = 2.62945e-09, omega+ = 1.26208
ExecutionTime = 0.047039 s  ClockTime = 0 s

Time = 35s

DICPCG:  Solving for Ux, Initial residual = 0.750374, Final residual = 1.09558e-07, No Iterations 3
DICPCG:  Solving for Uy, Initial residual = 0, Final residual = 0, No Iterations 0
smoothSolver:  Solving for epsilon, Initial residual = 0.168348, Final residual = 8.36218e-07, No Iterations 3
smoothSolver:  Solving for k, Initial residual = 0.100999, Final residual = 3.54596e-07, No Iterations 4
Uncorrected Ubar = 1.91085, pressure gradient = 1098.51
Rey = 21.5926, uTau = 0.743486, nut+ = 0, nuEff+ = 1, y+ = 4.64679, u+ = 4.64679, k+ = 1.28034e-08, epsilon+ = 1.12003e-09, omega+ = 0.971993
ExecutionTime = 0.048011 s  ClockTime = 0 s

Time = 36s

DICPCG:  Solving for Ux, Initial residual = 0.783572, Final residual = 1.12817e-07, No Iterations 3
DICPCG:  Solving for Uy, Initial residual = 0, Final residual = 0, No Iterations 0
smoothSolver:  Solving for epsilon, Initial residual = 0.228425, Final residual = 4.93104e-08, No Iterations 4
smoothSolver:  Solving for k, Initial residual = 0.163928, Final residual = 2.65363e-07, No Iterations 4
Uncorrected Ubar = 17.8992, pressure gradient = -1067.4
Rey = 10.6343, uTau = 0.521765, nut+ = 0, nuEff+ = 1, y+ = 3.26103, u+ = 3.26103, k+ = 4.0619e-08, epsilon+ = 4.88923e-09, omega+ = 1.33742
ExecutionTime = 0.048942 s  ClockTime = 0 s

Time = 37s

DICPCG:  Solving for Ux, Initial residual = 0.739365, Final residual = 1.07925e-07, No Iterations 3
DICPCG:  Solving for Uy, Initial residual = 0, Final residual = 0, No Iterations 0
smoothSolver:  Solving for epsilon, Initial residual = 0.164876, Final residual = 8.73626e-07, No Iterations 3
smoothSolver:  Solving for k, Initial residual = 0.101969, Final residual = 3.35286e-07, No Iterations 4
Uncorrected Ubar = 2.28676, pressure gradient = 1047.53
Rey = 20.7125, uTau = 0.728175, nut+ = 0, nuEff+ = 1, y+ = 4.55109, u+ = 4.55109, k+ = 2.20946e-08, epsilon+ = 2.01375e-09, omega+ = 1.01269
ExecutionTime = 0.04984 s  ClockTime = 0 s

Time = 38s

DICPCG:  Solving for Ux, Initial residual = 0.769506, Final residual = 1.10817e-07, No Iterations 3
DICPCG:  Solving for Uy, Initial residual = 0, Final residual = 0, No Iterations 0
smoothSolver:  Solving for epsilon, Initial residual = 0.224503, Final residual = 5.07441e-08, No Iterations 4
smoothSolver:  Solving for k, Initial residual = 0.162547, Final residual = 2.5477e-07, No Iterations 4
Uncorrected Ubar = 17.5321, pressure gradient = -1017.73
Rey = 10.0145, uTau = 0.506332, nut+ = 0, nuEff+ = 1, y+ = 3.16457, u+ = 3.16457, k+ = 7.142e-08, epsilon+ = 9.12614e-09, omega+ = 1.41979
ExecutionTime = 0.050688 s  ClockTime = 0 s

Time = 39s

DICPCG:  Solving for Ux, Initial residual = 0.728191, Final residual = 1.06272e-07, No Iterations 3
DICPCG:  Solving for Uy, Initial residual = 0, Final residual = 0, No Iterations 0
smoothSolver:  Solving for epsilon, Initial residual = 0.161392, Final residual = 9.14887e-07, No Iterations 3
smoothSolver:  Solving for k, Initial residual = 0.102847, Final residual = 3.27731e-07, No Iterations 4
Uncorrected Ubar = 2.64519, pressure gradient = 998.914
Rey = 19.8777, uTau = 0.71335, nut+ = 0, nuEff+ = 1, y+ = 4.45844, u+ = 4.45844, k+ = 3.8161e-08, epsilon+ = 3.62035e-09, omega+ = 1.05411
ExecutionTime = 0.052042 s  ClockTime = 0 s

Time = 40s

DICPCG:  Solving for Ux, Initial residual = 0.755317, Final residual = 1.08795e-07, No Iterations 3
DICPCG:  Solving for Uy, Initial residual = 0, Final residual = 0, No Iterations 0
smoothSolver:  Solving for epsilon, Initial residual = 0.220864, Final residual = 5.24782e-08, No Iterations 4
smoothSolver:  Solving for k, Initial residual = 0.161215, Final residual = 2.5207e-07, No Iterations 4
Uncorrected Ubar = 17.1821, pressure gradient = -970.367
Rey = 9.4195, uTau = 0.491059, nut+ = 0, nuEff+ = 1, y+ = 3.06912, u+ = 3.06912, k+ = 1.25909e-07, epsilon+ = 1.70985e-08, omega+ = 1.5089
ExecutionTime = 0.05303 s  ClockTime = 0 s

Time = 41s

DICPCG:  Solving for Ux, Initial residual = 0.716855, Final residual = 1.04598e-07, No Iterations 3
DICPCG:  Solving for Uy, Initial residual = 0, Final residual = 0, No Iterations 0
smoothSolver:  Solving for epsilon, Initial residual = 0.15813, Final residual = 9.58904e-07, No Iterations 3
smoothSolver:  Solving for k, Initial residual = 0.103628, Final residual = 3.27132e-07, No Iterations 4
Uncorrected Ubar = 2.98697, pressure gradient = 952.563
Rey = 19.0853, uTau = 0.698988, nut+ = 0, nuEff+ = 1, y+ = 4.36867, u+ = 4.36867, k+ = 6.59725e-08, epsilon+ = 6.51205e-09, omega+ = 1.09676
ExecutionTime = 0.054285 s  ClockTime = 0 s

Time = 42s

DICPCG:  Solving for Ux, Initial residual = 0.739579, Final residual = 1.06547e-07, No Iterations 3
DICPCG:  Solving for Uy, Initial residual = 0, Final residual = 0, No Iterations 0
smoothSolver:  Solving for epsilon, Initial residual = 0.217341, Final residual = 5.43829e-08, No Iterations 4
smoothSolver:  Solving for k, Initial residual = 0.159906, Final residual = 2.54096e-07, No Iterations 4
Uncorrected Ubar = 16.8483, pressure gradient = -925.204
Rey = 8.84884, uTau = 0.475952, nut+ = 0, nuEff+ = 1, y+ = 2.9747, u+ = 2.9747, k+ = 2.22491e-07, epsilon+ = 3.21602e-08, omega+ = 1.60606
ExecutionTime = 0.056071 s  ClockTime = 0 s

Time = 43s

DICPCG:  Solving for Ux, Initial residual = 0.705358, Final residual = 1.02904e-07, No Iterations 3
DICPCG:  Solving for Uy, Initial residual = 0, Final residual = 0, No Iterations 0
smoothSolver:  Solving for epsilon, Initial residual = 0.154952, Final residual = 2.84114e-08, No Iterations 4
smoothSolver:  Solving for k, Initial residual = 0.104357, Final residual = 3.31002e-07, No Iterations 4
Uncorrected Ubar = 3.31287, pressure gradient = 908.366
Rey = 18.3327, uTau = 0.685067, nut+ = 0, nuEff+ = 1, y+ = 4.28167, u+ = 4.28167, k+ = 1.14154e-07, epsilon+ = 1.17159e-08, omega+ = 1.14036
ExecutionTime = 0.057179 s  ClockTime = 0 s

Time = 44s

DICPCG:  Solving for Ux, Initial residual = 0.723401, Final residual = 1.04233e-07, No Iterations 3
DICPCG:  Solving for Uy, Initial residual = 0, Final residual = 0, No Iterations 0
smoothSolver:  Solving for epsilon, Initial residual = 0.213892, Final residual = 5.64051e-08, No Iterations 4
smoothSolver:  Solving for k, Initial residual = 0.158644, Final residual = 2.59137e-07, No Iterations 4
Uncorrected Ubar = 16.5301, pressure gradient = -882.14
Rey = 8.30203, uTau = 0.461012, nut+ = 0, nuEff+ = 1, y+ = 2.88132, u+ = 2.88132, k+ = 3.94155e-07, epsilon+ = 6.07268e-08, omega+ = 1.71187
ExecutionTime = 0.058113 s  ClockTime = 0 s

Time = 45s

DICPCG:  Solving for Ux, Initial residual = 0.693704, Final residual = 1.0119e-07, No Iterations 3
DICPCG:  Solving for Uy, Initial residual = 0, Final residual = 0, No Iterations 0
smoothSolver:  Solving for epsilon, Initial residual = 0.151916, Final residual = 2.982e-08, No Iterations 4
smoothSolver:  Solving for k, Initial residual = 0.105048, Final residual = 3.37719e-07, No Iterations 4
Uncorrected Ubar = 3.62363, pressure gradient = 866.225
Rey = 17.6175, uTau = 0.671571, nut+ = 0, nuEff+ = 1, y+ = 4.19732, u+ = 4.19732, k+ = 1.97704e-07, epsilon+ = 2.10859e-08, omega+ = 1.18504
ExecutionTime = 0.059017 s  ClockTime = 0 s

Time = 46s

DICPCG:  Solving for Ux, Initial residual = 0.707149, Final residual = 1.01905e-07, No Iterations 3
DICPCG:  Solving for Uy, Initial residual = 0, Final residual = 0, No Iterations 0
smoothSolver:  Solving for epsilon, Initial residual = 0.210631, Final residual = 5.85494e-08, No Iterations 4
smoothSolver:  Solving for k, Initial residual = 0.157419, Final residual = 2.66227e-07, No Iterations 4
Uncorrected Ubar = 16.2266, pressure gradient = -841.076
Rey = 7.77843, uTau = 0.446237, nut+ = 0, nuEff+ = 1, y+ = 2.78898, u+ = 2.78898, k+ = 7.00007e-07, epsilon+ = 1.15135e-07, omega+ = 1.82751
ExecutionTime = 0.059909 s  ClockTime = 0 s

Time = 47s

DICPCG:  Solving for Ux, Initial residual = 0.6818, Final residual = 9.9441e-08, No Iterations 3
DICPCG:  Solving for Uy, Initial residual = 0, Final residual = 0, No Iterations 0
smoothSolver:  Solving for epsilon, Initial residual = 0.148918, Final residual = 3.13666e-08, No Iterations 4
smoothSolver:  Solving for k, Initial residual = 0.105703, Final residual = 3.4634e-07, No Iterations 4
Uncorrected Ubar = 3.91994, pressure gradient = 826.043
Rey = 16.9375, uTau = 0.658483, nut+ = 0, nuEff+ = 1, y+ = 4.11552, u+ = 4.11552, k+ = 3.42705e-07, epsilon+ = 3.796e-08, omega+ = 1.23073
ExecutionTime = 0.061027 s  ClockTime = 0 s

Time = 48s

DICPCG:  Solving for Ux, Initial residual = 0.689493, Final residual = 9.93727e-08, No Iterations 3
DICPCG:  Solving for Uy, Initial residual = 0, Final residual = 0, No Iterations 0
smoothSolver:  Solving for epsilon, Initial residual = 0.207551, Final residual = 6.079e-08, No Iterations 4
smoothSolver:  Solving for k, Initial residual = 0.156237, Final residual = 2.74733e-07, No Iterations 4
Uncorrected Ubar = 15.9372, pressure gradient = -801.919
Rey = 7.27739, uTau = 0.431626, nut+ = 0, nuEff+ = 1, y+ = 2.69766, u+ = 2.69766, k+ = 1.2464e-06, epsilon+ = 2.19204e-07, omega+ = 1.95411
ExecutionTime = 0.062011 s  ClockTime = 0 s

Time = 49s

DICPCG:  Solving for Ux, Initial residual = 0.669595, Final residual = 9.76504e-08, No Iterations 3
DICPCG:  Solving for Uy, Initial residual = 0, Final residual = 0, No Iterations 0
smoothSolver:  Solving for epsilon, Initial residual = 0.145933, Final residual = 3.2995e-08, No Iterations 4
smoothSolver:  Solving for k, Initial residual = 0.106327, Final residual = 3.56315e-07, No Iterations 4
Uncorrected Ubar = 4.2025, pressure gradient = 787.728
Rey = 16.2907, uTau = 0.645787, nut+ = 0, nuEff+ = 1, y+ = 4.03617, u+ = 4.03617, k+ = 5.9457e-07, epsilon+ = 6.83576e-08, omega+ = 1.27744
ExecutionTime = 0.062956 s  ClockTime = 0 s

Time = 50s

DICPCG:  Solving for Ux, Initial residual = 0.671901, Final residual = 9.68476e-08, No Iterations 3
DICPCG:  Solving for Uy, Initial residual = 0, Final residual = 0, No Iterations 0
smoothSolver:  Solving for epsilon, Initial residual = 0.204585, Final residual = 6.30914e-08, No Iterations 4
smoothSolver:  Solving for k, Initial residual = 0.155096, Final residual = 2.84284e-07, No Iterations 4
Uncorrected Ubar = 15.6613, pressure gradient = -764.581
Rey = 6.79817, uTau = 0.417173, nut+ = 0, nuEff+ = 1, y+ = 2.60733, u+ = 2.60733, k+ = 2.22513e-06, epsilon+ = 4.19167e-07, omega+ = 2.09309
ExecutionTime = 0.064014 s  ClockTime = 0 s

Time = 51s

DICPCG:  Solving for Ux, Initial residual = 0.657249, Final residual = 9.58411e-08, No Iterations 3
DICPCG:  Solving for Uy, Initial residual = 0, Final residual = 0, No Iterations 0
smoothSolver:  Solving for epsilon, Initial residual = 0.143046, Final residual = 3.47137e-08, No Iterations 4
smoothSolver:  Solving for k, Initial residual = 0.106922, Final residual = 3.67308e-07, No Iterations 4
Uncorrected Ubar = 4.47193, pressure gradient = 751.195
Rey = 15.6751, uTau = 0.633469, nut+ = 0, nuEff+ = 1, y+ = 3.95918, u+ = 3.95918, k+ = 1.0324e-06, epsilon+ = 1.23128e-07, omega+ = 1.32515
ExecutionTime = 0.064896 s  ClockTime = 0 s

Time = 52s

DICPCG:  Solving for Ux, Initial residual = 0.654388, Final residual = 9.43325e-08, No Iterations 3
DICPCG:  Solving for Uy, Initial residual = 0, Final residual = 0, No Iterations 0
smoothSolver:  Solving for epsilon, Initial residual = 0.201645, Final residual = 6.54144e-08, No Iterations 4
smoothSolver:  Solving for k, Initial residual = 0.153998, Final residual = 2.94655e-07, No Iterations 4
Uncorrected Ubar = 15.3982, pressure gradient = -728.978
Rey = 6.34003, uTau = 0.402871, nut+ = 0, nuEff+ = 1, y+ = 2.51794, u+ = 2.51794, k+ = 3.98324e-06, epsilon+ = 8.05207e-07, omega+ = 2.2461
ExecutionTime = 0.065832 s  ClockTime = 0 s

Time = 53s

DICPCG:  Solving for Ux, Initial residual = 0.64477, Final residual = 9.40141e-08, No Iterations 3
DICPCG:  Solving for Uy, Initial residual = 0, Final residual = 0, No Iterations 0
smoothSolver:  Solving for epsilon, Initial residual = 0.140256, Final residual = 3.6594e-08, No Iterations 4
smoothSolver:  Solving for k, Initial residual = 0.10744, Final residual = 3.78917e-07, No Iterations 4
Uncorrected Ubar = 4.72885, pressure gradient = 716.361
Rey = 15.0892, uTau = 0.621518, nut+ = 0, nuEff+ = 1, y+ = 3.88449, u+ = 3.88449, k+ = 1.79411e-06, epsilon+ = 2.21832e-07, omega+ = 1.37383
ExecutionTime = 0.066724 s  ClockTime = 0 s

Time = 54s

DICPCG:  Solving for Ux, Initial residual = 0.636438, Final residual = 9.17529e-08, No Iterations 3
DICPCG:  Solving for Uy, Initial residual = 0, Final residual = 0, No Iterations 0
smoothSolver:  Solving for epsilon, Initial residual = 0.198852, Final residual = 6.77904e-08, No Iterations 4
smoothSolver:  Solving for k, Initial residual = 0.152942, Final residual = 3.05708e-07, No Iterations 4
Uncorrected Ubar = 15.1473, pressure gradient = -695.029
Rey = 5.90219, uTau = 0.388711, nut+ = 0, nuEff+ = 1, y+ = 2.42944, u+ = 2.42944, k+ = 7.15062e-06, epsilon+ = 1.55425e-06, omega+ = 2.41509
ExecutionTime = 0.067594 s  ClockTime = 0 s

Time = 55s

DICPCG:  Solving for Ux, Initial residual = 0.632166, Final residual = 9.21705e-08, No Iterations 3
DICPCG:  Solving for Uy, Initial residual = 0, Final residual = 0, No Iterations 0
smoothSolver:  Solving for epsilon, Initial residual = 0.137523, Final residual = 3.85548e-08, No Iterations 4
smoothSolver:  Solving for k, Initial residual = 0.107901, Final residual = 3.91071e-07, No Iterations 4
Uncorrected Ubar = 4.97386, pressure gradient = 683.145
Rey = 14.5313, uTau = 0.609919, nut+ = 0, nuEff+ = 1, y+ = 3.812, u+ = 3.812, k+ = 3.12027e-06, epsilon+ = 3.9974e-07, omega+ = 1.42345
ExecutionTime = 0.069916 s  ClockTime = 0 s

Time = 56s

DICPCG:  Solving for Ux, Initial residual = 0.617971, Final residual = 8.90979e-08, No Iterations 3
DICPCG:  Solving for Uy, Initial residual = 0, Final residual = 0, No Iterations 0
smoothSolver:  Solving for epsilon, Initial residual = 0.196201, Final residual = 7.02177e-08, No Iterations 4
smoothSolver:  Solving for k, Initial residual = 0.151928, Final residual = 3.17352e-07, No Iterations 4
Uncorrected Ubar = 14.908, pressure gradient = -662.658
Rey = 5.48387, uTau = 0.374683, nut+ = 0, nuEff+ = 1, y+ = 2.34177, u+ = 2.34177, k+ = 1.28748e-05, epsilon+ = 3.01545e-06, omega+ = 2.60238
ExecutionTime = 0.071555 s  ClockTime = 0 s

Time = 57s

DICPCG:  Solving for Ux, Initial residual = 0.619448, Final residual = 9.03117e-08, No Iterations 3
DICPCG:  Solving for Uy, Initial residual = 0, Final residual = 0, No Iterations 0
smoothSolver:  Solving for epsilon, Initial residual = 0.13477, Final residual = 4.056e-08, No Iterations 4
smoothSolver:  Solving for k, Initial residual = 0.108336, Final residual = 4.03809e-07, No Iterations 4
Uncorrected Ubar = 5.20751, pressure gradient = 651.474
Rey = 13.9999, uTau = 0.598663, nut+ = 0, nuEff+ = 1, y+ = 3.74164, u+ = 3.74164, k+ = 5.43087e-06, epsilon+ = 7.20457e-07, omega+ = 1.474
ExecutionTime = 0.073014 s  ClockTime = 0 s

Time = 58s

DICPCG:  Solving for Ux, Initial residual = 0.599689, Final residual = 8.64691e-08, No Iterations 3
DICPCG:  Solving for Uy, Initial residual = 0, Final residual = 0, No Iterations 0
smoothSolver:  Solving for epsilon, Initial residual = 0.19368, Final residual = 7.26996e-08, No Iterations 4
smoothSolver:  Solving for k, Initial residual = 0.150954, Final residual = 3.29543e-07, No Iterations 4
Uncorrected Ubar = 14.6799, pressure gradient = -631.791
Rey = 5.08425, uTau = 0.360773, nut+ = 0, nuEff+ = 1, y+ = 2.25483, u+ = 2.25483, k+ = 2.3254e-05, epsilon+ = 5.8826e-06, omega+ = 2.81079
ExecutionTime = 0.074421 s  ClockTime = 0 s

Time = 59s

DICPCG:  Solving for Ux, Initial residual = 0.606622, Final residual = 8.84388e-08, No Iterations 3
DICPCG:  Solving for Uy, Initial residual = 0, Final residual = 0, No Iterations 0
smoothSolver:  Solving for epsilon, Initial residual = 0.132088, Final residual = 4.26307e-08, No Iterations 4
smoothSolver:  Solving for k, Initial residual = 0.108746, Final residual = 4.17127e-07, No Iterations 4
Uncorrected Ubar = 5.43035, pressure gradient = 621.275
Rey = 13.4935, uTau = 0.587737, nut+ = 0, nuEff+ = 1, y+ = 3.67335, u+ = 3.67335, k+ = 9.45963e-06, epsilon+ = 1.29869e-06, omega+ = 1.52542
ExecutionTime = 0.075788 s  ClockTime = 0 s

Time = 60s

DICPCG:  Solving for Ux, Initial residual = 0.581476, Final residual = 8.38503e-08, No Iterations 3
DICPCG:  Solving for Uy, Initial residual = 0, Final residual = 0, No Iterations 0
smoothSolver:  Solving for epsilon, Initial residual = 0.191279, Final residual = 7.5248e-08, No Iterations 4
smoothSolver:  Solving for k, Initial residual = 0.150019, Final residual = 3.42279e-07, No Iterations 4
Uncorrected Ubar = 14.4622, pressure gradient = -602.36
Rey = 4.70249, uTau = 0.346964, nut+ = 0, nuEff+ = 1, y+ = 2.16852, u+ = 2.16852, k+ = 4.21428e-05, epsilon+ = 1.15445e-05, omega+ = 3.04374
ExecutionTime = 0.077342 s  ClockTime = 0 s

Time = 61s

DICPCG:  Solving for Ux, Initial residual = 0.593694, Final residual = 8.65526e-08, No Iterations 3
DICPCG:  Solving for Uy, Initial residual = 0, Final residual = 0, No Iterations 0
smoothSolver:  Solving for epsilon, Initial residual = 0.129461, Final residual = 4.47624e-08, No Iterations 4
smoothSolver:  Solving for k, Initial residual = 0.109131, Final residual = 4.31083e-07, No Iterations 4
Uncorrected Ubar = 5.64291, pressure gradient = 592.481
Rey = 13.0109, uTau = 0.57713, nut+ = 0, nuEff+ = 1, y+ = 3.60706, u+ = 3.60706, k+ = 1.64897e-05, epsilon+ = 2.34136e-06, omega+ = 1.57766
ExecutionTime = 0.078336 s  ClockTime = 0 s

Time = 62s

DICPCG:  Solving for Ux, Initial residual = 0.562822, Final residual = 8.11686e-08, No Iterations 3
DICPCG:  Solving for Uy, Initial residual = 0, Final residual = 0, No Iterations 0
smoothSolver:  Solving for epsilon, Initial residual = 0.188986, Final residual = 7.78876e-08, No Iterations 4
smoothSolver:  Solving for k, Initial residual = 0.149025, Final residual = 3.55384e-07, No Iterations 4
Uncorrected Ubar = 14.2546, pressure gradient = -574.297
Rey = 4.3377, uTau = 0.333234, nut+ = 0, nuEff+ = 1, y+ = 2.08271, u+ = 2.08271, k+ = 7.66571e-05, epsilon+ = 2.2805e-05, omega+ = 3.30549
ExecutionTime = 0.079317 s  ClockTime = 0 s

Time = 63s

DICPCG:  Solving for Ux, Initial residual = 0.580518, Final residual = 8.46321e-08, No Iterations 3
DICPCG:  Solving for Uy, Initial residual = 0, Final residual = 0, No Iterations 0
smoothSolver:  Solving for epsilon, Initial residual = 0.126862, Final residual = 4.69519e-08, No Iterations 4
smoothSolver:  Solving for k, Initial residual = 0.109419, Final residual = 4.45544e-07, No Iterations 4
Uncorrected Ubar = 5.84572, pressure gradient = 565.026
Rey = 12.5507, uTau = 0.566831, nut+ = 0, nuEff+ = 1, y+ = 3.54269, u+ = 3.54269, k+ = 2.87675e-05, epsilon+ = 4.22189e-06, omega+ = 1.63066
ExecutionTime = 0.080229 s  ClockTime = 0 s

Time = 64s

DICPCG:  Solving for Ux, Initial residual = 0.544172, Final residual = 7.84896e-08, No Iterations 3
DICPCG:  Solving for Uy, Initial residual = 0, Final residual = 0, No Iterations 0
smoothSolver:  Solving for epsilon, Initial residual = 0.186784, Final residual = 8.06632e-08, No Iterations 4
smoothSolver:  Solving for k, Initial residual = 0.148033, Final residual = 3.69117e-07, No Iterations 4
Uncorrected Ubar = 14.0564, pressure gradient = -547.539
Rey = 3.98888, uTau = 0.319555, nut+ = 0, nuEff+ = 1, y+ = 1.99722, u+ = 1.99722, k+ = 0.000140016, epsilon+ = 4.53835e-05, omega+ = 3.60146
ExecutionTime = 0.081129 s  ClockTime = 0 s

Time = 65s

DICPCG:  Solving for Ux, Initial residual = 0.567184, Final residual = 8.26905e-08, No Iterations 3
DICPCG:  Solving for Uy, Initial residual = 0, Final residual = 0, No Iterations 0
smoothSolver:  Solving for epsilon, Initial residual = 0.125503, Final residual = 4.91984e-08, No Iterations 4
smoothSolver:  Solving for k, Initial residual = 0.109649, Final residual = 4.60951e-07, No Iterations 4
Uncorrected Ubar = 6.03931, pressure gradient = 538.85
Rey = 12.1116, uTau = 0.556828, nut+ = 0, nuEff+ = 1, y+ = 3.48018, u+ = 3.48018, k+ = 5.02331e-05, epsilon+ = 7.6147e-06, omega+ = 1.6843
ExecutionTime = 0.082126 s  ClockTime = 0 s

Time = 66s

DICPCG:  Solving for Ux, Initial residual = 0.525855, Final residual = 7.58621e-08, No Iterations 3
DICPCG:  Solving for Uy, Initial residual = 0, Final residual = 0, No Iterations 0
smoothSolver:  Solving for epsilon, Initial residual = 0.184651, Final residual = 8.36542e-08, No Iterations 4
smoothSolver:  Solving for k, Initial residual = 0.147064, Final residual = 3.83785e-07, No Iterations 4
Uncorrected Ubar = 13.8672, pressure gradient = -522.029
Rey = 3.65489, uTau = 0.305884, nut+ = 0, nuEff+ = 1, y+ = 1.91178, u+ = 1.91178, k+ = 0.000256966, epsilon+ = 9.10906e-05, omega+ = 3.93872
ExecutionTime = 0.083078 s  ClockTime = 0 s

Time = 67s

DICPCG:  Solving for Ux, Initial residual = 0.553726, Final residual = 8.07326e-08, No Iterations 3
DICPCG:  Solving for Uy, Initial residual = 0, Final residual = 0, No Iterations 0
smoothSolver:  Solving for epsilon, Initial residual = 0.125193, Final residual = 5.1507e-08, No Iterations 4
smoothSolver:  Solving for k, Initial residual = 0.109844, Final residual = 4.77961e-07, No Iterations 4
Uncorrected Ubar = 6.22422, pressure gradient = 513.893
Rey = 11.6925, uTau = 0.547108, nut+ = 0, nuEff+ = 1, y+ = 3.41943, u+ = 3.41943, k+ = 8.78138e-05, epsilon+ = 1.37394e-05, omega+ = 1.73845
ExecutionTime = 0.084005 s  ClockTime = 0 s

Time = 68s

DICPCG:  Solving for Ux, Initial residual = 0.507871, Final residual = 7.32876e-08, No Iterations 3
DICPCG:  Solving for Uy, Initial residual = 0, Final residual = 0, No Iterations 0
smoothSolver:  Solving for epsilon, Initial residual = 0.182555, Final residual = 8.69976e-08, No Iterations 4
smoothSolver:  Solving for k, Initial residual = 0.146108, Final residual = 3.9985e-07, No Iterations 4
Uncorrected Ubar = 13.6864, pressure gradient = -497.708
Rey = 3.33433, uTau = 0.292163, nut+ = 0, nuEff+ = 1, y+ = 1.82602, u+ = 1.82602, k+ = 0.000474312, epsilon+ = 0.000184706, omega+ = 4.32688
ExecutionTime = 0.085604 s  ClockTime = 0 s

Time = 69s

DICPCG:  Solving for Ux, Initial residual = 0.540104, Final residual = 7.8751e-08, No Iterations 3
DICPCG:  Solving for Uy, Initial residual = 0, Final residual = 0, No Iterations 0
smoothSolver:  Solving for epsilon, Initial residual = 0.124892, Final residual = 5.38942e-08, No Iterations 4
smoothSolver:  Solving for k, Initial residual = 0.109995, Final residual = 4.97532e-07, No Iterations 4
Uncorrected Ubar = 6.40104, pressure gradient = 490.102
Rey = 11.292, uTau = 0.537657, nut+ = 0, nuEff+ = 1, y+ = 3.36036, u+ = 3.36036, k+ = 0.000153736, epsilon+ = 2.48063e-05, omega+ = 1.79284
ExecutionTime = 0.086568 s  ClockTime = 0 s

Time = 70s

DICPCG:  Solving for Ux, Initial residual = 0.489536, Final residual = 7.06684e-08, No Iterations 3
DICPCG:  Solving for Uy, Initial residual = 0, Final residual = 0, No Iterations 0
smoothSolver:  Solving for epsilon, Initial residual = 0.180451, Final residual = 9.09305e-08, No Iterations 4
smoothSolver:  Solving for k, Initial residual = 0.145151, Final residual = 4.18155e-07, No Iterations 4
Uncorrected Ubar = 13.5133, pressure gradient = -474.525
Rey = 3.02537, uTau = 0.278298, nut+ = 0, nuEff+ = 1, y+ = 1.73936, u+ = 1.73936, k+ = 0.000881818, epsilon+ = 0.000379333, omega+ = 4.77968
ExecutionTime = 0.087474 s  ClockTime = 0 s

Time = 71s

DICPCG:  Solving for Ux, Initial residual = 0.52624, Final residual = 7.6729e-08, No Iterations 3
DICPCG:  Solving for Uy, Initial residual = 0, Final residual = 0, No Iterations 0
smoothSolver:  Solving for epsilon, Initial residual = 0.124599, Final residual = 5.64023e-08, No Iterations 4
smoothSolver:  Solving for k, Initial residual = 0.110088, Final residual = 5.21341e-07, No Iterations 4
Uncorrected Ubar = 6.57044, pressure gradient = 467.426
Rey = 10.9089, uTau = 0.528458, nut+ = 0, nuEff+ = 1, y+ = 3.30286, u+ = 3.30286, k+ = 0.000269708, epsilon+ = 4.48358e-05, omega+ = 1.84709
ExecutionTime = 0.088363 s  ClockTime = 0 s

Time = 72s

DICPCG:  Solving for Ux, Initial residual = 0.471411, Final residual = 6.8083e-08, No Iterations 3
DICPCG:  Solving for Uy, Initial residual = 0, Final residual = 0, No Iterations 0
smoothSolver:  Solving for epsilon, Initial residual = 0.178268, Final residual = 9.58652e-08, No Iterations 4
smoothSolver:  Solving for k, Initial residual = 0.144139, Final residual = 4.40144e-07, No Iterations 4
Uncorrected Ubar = 13.3473, pressure gradient = -452.431
Rey = 2.72546, uTau = 0.264144, nut+ = 0, nuEff+ = 1, y+ = 1.6509, u+ = 1.6509, k+ = 0.00165513, epsilon+ = 0.000792182, omega+ = 5.31804
ExecutionTime = 0.089243 s  ClockTime = 0 s

Time = 73s

DICPCG:  Solving for Ux, Initial residual = 0.511999, Final residual = 7.46299e-08, No Iterations 3
DICPCG:  Solving for Uy, Initial residual = 0, Final residual = 0, No Iterations 0
smoothSolver:  Solving for epsilon, Initial residual = 0.124297, Final residual = 5.91287e-08, No Iterations 4
smoothSolver:  Solving for k, Initial residual = 0.110073, Final residual = 5.52253e-07, No Iterations 4
Uncorrected Ubar = 6.73322, pressure gradient = 445.817
Rey = 10.5419, uTau = 0.519492, nut+ = 0, nuEff+ = 1, y+ = 3.24683, u+ = 3.24683, k+ = 0.000474615, epsilon+ = 8.11828e-05, omega+ = 1.90055
ExecutionTime = 0.090186 s  ClockTime = 0 s

Time = 74s

DICPCG:  Solving for Ux, Initial residual = 0.45357, Final residual = 6.55272e-08, No Iterations 3
DICPCG:  Solving for Uy, Initial residual = 0, Final residual = 0, No Iterations 0
smoothSolver:  Solving for epsilon, Initial residual = 0.175818, Final residual = 1.02482e-07, No Iterations 4
smoothSolver:  Solving for k, Initial residual = 0.142997, Final residual = 4.68519e-07, No Iterations 4
Uncorrected Ubar = 13.1873, pressure gradient = -431.382
Rey = 2.43094, uTau = 0.249464, nut+ = 0, nuEff+ = 1, y+ = 1.55915, u+ = 1.55915, k+ = 0.00314826, epsilon+ = 0.00169333, omega+ = 5.97624
ExecutionTime = 0.09113 s  ClockTime = 0 s

Time = 75s

DICPCG:  Solving for Ux, Initial residual = 0.497145, Final residual = 7.23736e-08, No Iterations 3
DICPCG:  Solving for Uy, Initial residual = 0, Final residual = 0, No Iterations 0
smoothSolver:  Solving for epsilon, Initial residual = 0.123927, Final residual = 6.22927e-08, No Iterations 4
smoothSolver:  Solving for k, Initial residual = 0.10985, Final residual = 5.95343e-07, No Iterations 4
Uncorrected Ubar = 6.89039, pressure gradient = 425.236
Rey = 10.1898, uTau = 0.510743, nut+ = 0, nuEff+ = 1, y+ = 3.19214, u+ = 3.19214, k+ = 0.000839052, epsilon+ = 0.000147416, omega+ = 1.95215
ExecutionTime = 0.092031 s  ClockTime = 0 s

Time = 76s

DICPCG:  Solving for Ux, Initial residual = 0.435884, Final residual = 6.29341e-08, No Iterations 3
DICPCG:  Solving for Uy, Initial residual = 0, Final residual = 0, No Iterations 0
smoothSolver:  Solving for epsilon, Initial residual = 0.172936, Final residual = 1.12086e-07, No Iterations 4
smoothSolver:  Solving for k, Initial residual = 0.141735, Final residual = 5.08901e-07, No Iterations 4
Uncorrected Ubar = 13.0323, pressure gradient = -411.338
Rey = 2.13639, uTau = 0.233862, nut+ = 0, nuEff+ = 1, y+ = 1.46164, u+ = 1.46164, k+ = 0.00610754, epsilon+ = 0.00374647, omega+ = 6.81573
ExecutionTime = 0.093498 s  ClockTime = 0 s

Time = 77s

DICPCG:  Solving for Ux, Initial residual = 0.481289, Final residual = 6.97846e-08, No Iterations 3
DICPCG:  Solving for Uy, Initial residual = 0, Final residual = 0, No Iterations 0
smoothSolver:  Solving for epsilon, Initial residual = 0.123335, Final residual = 6.63902e-08, No Iterations 4
smoothSolver:  Solving for k, Initial residual = 0.109382, Final residual = 6.60843e-07, No Iterations 4
Uncorrected Ubar = 7.04323, pressure gradient = 405.647
Rey = 9.85188, uTau = 0.502203, nut+ = 0, nuEff+ = 1, y+ = 3.13877, u+ = 3.13877, k+ = 0.00149361, epsilon+ = 0.000268868, omega+ = 2.00014
ExecutionTime = 0.094947 s  ClockTime = 0 s

Time = 78s

DICPCG:  Solving for Ux, Initial residual = 0.417447, Final residual = 6.00381e-08, No Iterations 3
DICPCG:  Solving for Uy, Initial residual = 0, Final residual = 0, No Iterations 0
smoothSolver:  Solving for epsilon, Initial residual = 0.169456, Final residual = 1.27184e-07, No Iterations 4
smoothSolver:  Solving for k, Initial residual = 0.140269, Final residual = 5.72194e-07, No Iterations 4
Uncorrected Ubar = 12.8808, pressure gradient = -392.268
Rey = 1.83377, uTau = 0.216667, nut+ = 0, nuEff+ = 1, y+ = 1.35417, u+ = 1.35417, k+ = 0.0122188, epsilon+ = 0.00875177, omega+ = 7.95836
ExecutionTime = 0.096205 s  ClockTime = 0 s

Time = 79s

DICPCG:  Solving for Ux, Initial residual = 0.463802, Final residual = 6.66052e-08, No Iterations 3
DICPCG:  Solving for Uy, Initial residual = 0, Final residual = 0, No Iterations 0
smoothSolver:  Solving for epsilon, Initial residual = 0.12212, Final residual = 7.25986e-08, No Iterations 4
smoothSolver:  Solving for k, Initial residual = 0.108479, Final residual = 7.68289e-07, No Iterations 4
Uncorrected Ubar = 7.19339, pressure gradient = 387.022
Rey = 9.52899, uTau = 0.493905, nut+ = 0, nuEff+ = 1, y+ = 3.08691, u+ = 3.08691, k+ = 0.00268584, epsilon+ = 0.000493526, omega+ = 2.04168
ExecutionTime = 0.097078 s  ClockTime = 0 s

Time = 80s

DICPCG:  Solving for Ux, Initial residual = 0.398553, Final residual = 5.71101e-08, No Iterations 3
DICPCG:  Solving for Uy, Initial residual = 0, Final residual = 0, No Iterations 0
smoothSolver:  Solving for epsilon, Initial residual = 0.165058, Final residual = 1.52651e-07, No Iterations 4
smoothSolver:  Solving for k, Initial residual = 0.138471, Final residual = 6.81846e-07, No Iterations 4
Uncorrected Ubar = 12.7308, pressure gradient = -374.144
Rey = 1.51132, uTau = 0.196697, nut+ = 0, nuEff+ = 1, y+ = 1.22936, u+ = 1.22936, k+ = 0.0257255, epsilon+ = 0.0224102, omega+ = 9.67918
ExecutionTime = 0.097929 s  ClockTime = 0 s

Time = 81s

DICPCG:  Solving for Ux, Initial residual = 0.44371, Final residual = 6.29667e-08, No Iterations 3
DICPCG:  Solving for Uy, Initial residual = 0, Final residual = 0, No Iterations 0
smoothSolver:  Solving for epsilon, Initial residual = 0.119525, Final residual = 8.36381e-08, No Iterations 4
smoothSolver:  Solving for k, Initial residual = 0.106795, Final residual = 9.58942e-07, No Iterations 4
Uncorrected Ubar = 7.34279, pressure gradient = 369.343
Rey = 9.22581, uTau = 0.485984, nut+ = 0, nuEff+ = 1, y+ = 3.0374, u+ = 3.0374, k+ = 0.00489839, epsilon+ = 0.000913569, omega+ = 2.07227
ExecutionTime = 0.098763 s  ClockTime = 0 s

Time = 82s

DICPCG:  Solving for Ux, Initial residual = 0.378763, Final residual = 5.43364e-08, No Iterations 3
DICPCG:  Solving for Uy, Initial residual = 0, Final residual = 0, No Iterations 0
smoothSolver:  Solving for epsilon, Initial residual = 0.159403, Final residual = 1.98714e-07, No Iterations 4
smoothSolver:  Solving for k, Initial residual = 0.136161, Final residual = 8.92478e-07, No Iterations 4
Uncorrected Ubar = 12.5804, pressure gradient = -356.947
Rey = 1.15255, uTau = 0.171771, nut+ = 0, nuEff+ = 1, y+ = 1.07357, u+ = 1.07357, k+ = 0.0593885, epsilon+ = 0.0680406, omega+ = 12.7299
ExecutionTime = 0.09959 s  ClockTime = 0 s

Time = 83s

DICPCG:  Solving for Ux, Initial residual = 0.419601, Final residual = 5.9545e-08, No Iterations 3
DICPCG:  Solving for Uy, Initial residual = 0, Final residual = 0, No Iterations 0
smoothSolver:  Solving for epsilon, Initial residual = 0.114303, Final residual = 1.06684e-07, No Iterations 4
smoothSolver:  Solving for k, Initial residual = 0.104156, Final residual = 8.37043e-08, No Iterations 5
Uncorrected Ubar = 7.49336, pressure gradient = 352.606
Rey = 8.95556, uTau = 0.478813, nut+ = 0, nuEff+ = 1, y+ = 2.99258, u+ = 2.99258, k+ = 0.00909505, epsilon+ = 0.00170689, omega+ = 2.08525
ExecutionTime = 0.100514 s  ClockTime = 0 s

Time = 84s

DICPCG:  Solving for Ux, Initial residual = 0.356679, Final residual = 5.29316e-08, No Iterations 3
DICPCG:  Solving for Uy, Initial residual = 0, Final residual = 0, No Iterations 0
smoothSolver:  Solving for epsilon, Initial residual = 0.152327, Final residual = 2.88308e-07, No Iterations 4
smoothSolver:  Solving for k, Initial residual = 0.1331, Final residual = 8.03388e-08, No Iterations 5
Uncorrected Ubar = 12.4277, pressure gradient = -340.665
Rey = 0.735667, uTau = 0.137234, nut+ = 0, nuEff+ = 1, y+ = 0.85771, u+ = 0.85771, k+ = 0.166928, epsilon+ = 0.300999, omega+ = 20.0352
ExecutionTime = 0.101859 s  ClockTime = 0 s

Time = 85s

DICPCG:  Solving for Ux, Initial residual = 0.389758, Final residual = 5.82927e-08, No Iterations 3
DICPCG:  Solving for Uy, Initial residual = 0, Final residual = 0, No Iterations 0
smoothSolver:  Solving for epsilon, Initial residual = 0.104559, Final residual = 1.60637e-07, No Iterations 4
smoothSolver:  Solving for k, Initial residual = 0.102298, Final residual = 1.493e-07, No Iterations 5
Uncorrected Ubar = 7.64625, pressure gradient = 336.822
Rey = 8.74739, uTau = 0.473216, nut+ = 0, nuEff+ = 1, y+ = 2.9576, u+ = 2.9576, k+ = 0.0172143, epsilon+ = 0.00320983, omega+ = 2.07181
ExecutionTime = 0.102897 s  ClockTime = 0 s

Time = 86s

DICPCG:  Solving for Ux, Initial residual = 0.331529, Final residual = 5.42705e-08, No Iterations 3
DICPCG:  Solving for Uy, Initial residual = 0, Final residual = 0, No Iterations 0
smoothSolver:  Solving for epsilon, Initial residual = 0.144057, Final residual = 4.75953e-07, No Iterations 4
smoothSolver:  Solving for k, Initial residual = 0.128972, Final residual = 1.6706e-07, No Iterations 5
Uncorrected Ubar = 12.2725, pressure gradient = -325.305
Rey = 0.233749, uTau = 0.0773562, nut+ = 0, nuEff+ = 1, y+ = 0.483476, u+ = 0.483476, k+ = 0.963596, epsilon+ = 5.51187, omega+ = 63.5567
ExecutionTime = 0.103756 s  ClockTime = 0 s

Time = 87s

DICPCG:  Solving for Ux, Initial residual = 0.352862, Final residual = 5.75725e-08, No Iterations 3
DICPCG:  Solving for Uy, Initial residual = 0, Final residual = 0, No Iterations 0
smoothSolver:  Solving for epsilon, Initial residual = 0.0909516, Final residual = 2.92872e-07, No Iterations 4
smoothSolver:  Solving for k, Initial residual = 0.0992114, Final residual = 3.25661e-07, No Iterations 5
Uncorrected Ubar = 7.80079, pressure gradient = 322.04
Rey = 8.65386, uTau = 0.470679, nut+ = 0, nuEff+ = 1, y+ = 2.94174, u+ = 2.94174, k+ = 0.033042, epsilon+ = 0.00601527, omega+ = 2.02277
ExecutionTime = 0.104638 s  ClockTime = 0 s

Time = 88s

DICPCG:  Solving for Ux, Initial residual = 0.30243, Final residual = 5.68207e-08, No Iterations 3
DICPCG:  Solving for Uy, Initial residual = 0, Final residual = 0, No Iterations 0
smoothSolver:  Solving for epsilon, Initial residual = 0.132189, Final residual = 8.76521e-07, No Iterations 4
smoothSolver:  Solving for k, Initial residual = 0.12318, Final residual = 4.28182e-07, No Iterations 5
Uncorrected Ubar = 12.1167, pressure gradient = -310.91
Rey = 0.385244, uTau = 0.0993088, nut+ = 0, nuEff+ = 1, y+ = 0.62068, u+ = 0.62068, k+ = 1.09518, epsilon+ = 3.85332, omega+ = 39.0938
ExecutionTime = 0.10548 s  ClockTime = 0 s

Time = 89s

DICPCG:  Solving for Ux, Initial residual = 0.308964, Final residual = 5.95037e-08, No Iterations 3
DICPCG:  Solving for Uy, Initial residual = 0, Final residual = 0, No Iterations 0
smoothSolver:  Solving for epsilon, Initial residual = 0.0762153, Final residual = 6.26606e-07, No Iterations 4
smoothSolver:  Solving for k, Initial residual = 0.0947, Final residual = 8.30015e-07, No Iterations 5
Uncorrected Ubar = 7.95391, pressure gradient = 308.356
Rey = 8.75074, uTau = 0.473306, nut+ = 0, nuEff+ = 1, y+ = 2.95816, u+ = 2.95816, k+ = 0.0633016, epsilon+ = 0.0110195, omega+ = 1.93421
ExecutionTime = 0.106317 s  ClockTime = 0 s

Time = 90s

DICPCG:  Solving for Ux, Initial residual = 0.268538, Final residual = 6.26976e-08, No Iterations 3
DICPCG:  Solving for Uy, Initial residual = 0, Final residual = 0, No Iterations 0
smoothSolver:  Solving for epsilon, Initial residual = 0.117311, Final residual = 1.17079e-07, No Iterations 5
smoothSolver:  Solving for k, Initial residual = 0.115281, Final residual = 1.31949e-07, No Iterations 6
Uncorrected Ubar = 11.9648, pressure gradient = -297.58
Rey = 1.15841, uTau = 0.172207, nut+ = 0, nuEff+ = 1, y+ = 1.07629, u+ = 1.07629, k+ = 0.689573, epsilon+ = 0.825594, omega+ = 13.3028
ExecutionTime = 0.107162 s  ClockTime = 0 s

Time = 91s

DICPCG:  Solving for Ux, Initial residual = 0.258359, Final residual = 5.76137e-08, No Iterations 3
DICPCG:  Solving for Uy, Initial residual = 0, Final residual = 0, No Iterations 0
smoothSolver:  Solving for epsilon, Initial residual = 0.0743253, Final residual = 1.02383e-07, No Iterations 5
smoothSolver:  Solving for k, Initial residual = 0.0885756, Final residual = 2.78001e-07, No Iterations 6
Uncorrected Ubar = 8.10076, pressure gradient = 295.893
Rey = 9.11607, uTau = 0.483085, nut+ = 0, nuEff+ = 1, y+ = 3.01928, u+ = 3.01928, k+ = 0.117498, epsilon+ = 0.0192246, omega+ = 1.81795
ExecutionTime = 0.108 s  ClockTime = 0 s

Time = 92s

DICPCG:  Solving for Ux, Initial residual = 0.232112, Final residual = 6.43937e-08, No Iterations 3
DICPCG:  Solving for Uy, Initial residual = 0, Final residual = 0, No Iterations 0
smoothSolver:  Solving for epsilon, Initial residual = 0.0998517, Final residual = 2.96624e-07, No Iterations 5
smoothSolver:  Solving for k, Initial residual = 0.105033, Final residual = 4.42956e-07, No Iterations 6
Uncorrected Ubar = 11.8219, pressure gradient = -285.44
Rey = 2.11844, uTau = 0.232878, nut+ = 0, nuEff+ = 1, y+ = 1.45549, u+ = 1.45549, k+ = 0.702395, epsilon+ = 0.477351, omega+ = 7.55116
ExecutionTime = 0.109422 s  ClockTime = 0 s

Time = 93s

DICPCG:  Solving for Ux, Initial residual = 0.208913, Final residual = 4.9769e-08, No Iterations 3
DICPCG:  Solving for Uy, Initial residual = 0, Final residual = 0, No Iterations 0
smoothSolver:  Solving for epsilon, Initial residual = 0.066777, Final residual = 2.86697e-07, No Iterations 5
smoothSolver:  Solving for k, Initial residual = 0.0806798, Final residual = 8.0858e-07, No Iterations 6
Uncorrected Ubar = 8.23658, pressure gradient = 284.711
Rey = 9.77631, uTau = 0.500273, nut+ = 0, nuEff+ = 1, y+ = 3.12671, u+ = 3.12671, k+ = 0.202699, epsilon+ = 0.031137, omega+ = 1.7068
ExecutionTime = 0.110467 s  ClockTime = 0 s

Time = 94s

DICPCG:  Solving for Ux, Initial residual = 0.195634, Final residual = 6.06867e-08, No Iterations 3
DICPCG:  Solving for Uy, Initial residual = 0, Final residual = 0, No Iterations 0
smoothSolver:  Solving for epsilon, Initial residual = 0.0806542, Final residual = 7.00212e-07, No Iterations 5
smoothSolver:  Solving for k, Initial residual = 0.0923638, Final residual = 2.00542e-07, No Iterations 7
Uncorrected Ubar = 11.692, pressure gradient = -274.524
Rey = 3.25992, uTau = 0.288884, nut+ = 0, nuEff+ = 1, y+ = 1.80553, u+ = 1.80553, k+ = 0.798739, epsilon+ = 0.372943, omega+ = 5.18794
ExecutionTime = 0.111336 s  ClockTime = 0 s

Time = 95s

DICPCG:  Solving for Ux, Initial residual = 0.167091, Final residual = 4.12283e-08, No Iterations 3
DICPCG:  Solving for Uy, Initial residual = 0, Final residual = 0, No Iterations 0
smoothSolver:  Solving for epsilon, Initial residual = 0.0559652, Final residual = 6.99533e-07, No Iterations 5
smoothSolver:  Solving for k, Initial residual = 0.0713248, Final residual = 3.44898e-07, No Iterations 7
Uncorrected Ubar = 8.3588, pressure gradient = 274.711
Rey = 10.6487, uTau = 0.522117, nut+ = 0, nuEff+ = 1, y+ = 3.26323, u+ = 3.26323, k+ = 0.312646, epsilon+ = 0.0459253, omega+ = 1.63214
ExecutionTime = 0.112197 s  ClockTime = 0 s

Time = 96s

DICPCG:  Solving for Ux, Initial residual = 0.163281, Final residual = 5.47169e-08, No Iterations 3
DICPCG:  Solving for Uy, Initial residual = 0, Final residual = 0, No Iterations 0
smoothSolver:  Solving for epsilon, Initial residual = 0.0623423, Final residual = 1.78165e-07, No Iterations 6
smoothSolver:  Solving for k, Initial residual = 0.0784573, Final residual = 4.9912e-07, No Iterations 7
Uncorrected Ubar = 11.5759, pressure gradient = -264.683
Rey = 4.50536, uTau = 0.339613, nut+ = 0, nuEff+ = 1, y+ = 2.12258, u+ = 2.12258, k+ = 0.907096, epsilon+ = 0.328034, omega+ = 4.01812
ExecutionTime = 0.11311 s  ClockTime = 0 s

Time = 97s

DICPCG:  Solving for Ux, Initial residual = 0.134484, Final residual = 3.79534e-08, No Iterations 3
DICPCG:  Solving for Uy, Initial residual = 0, Final residual = 0, No Iterations 0
smoothSolver:  Solving for epsilon, Initial residual = 0.0454468, Final residual = 1.92341e-07, No Iterations 6
smoothSolver:  Solving for k, Initial residual = 0.0616867, Final residual = 7.36767e-07, No Iterations 7
Uncorrected Ubar = 8.46797, pressure gradient = 265.633
Rey = 11.5689, uTau = 0.54421, nut+ = 0, nuEff+ = 1, y+ = 3.40131, u+ = 3.40131, k+ = 0.426018, epsilon+ = 0.0610698, omega+ = 1.59278
ExecutionTime = 0.113973 s  ClockTime = 0 s

Time = 98s

DICPCG:  Solving for Ux, Initial residual = 0.1365, Final residual = 5.00608e-08, No Iterations 3
DICPCG:  Solving for Uy, Initial residual = 0, Final residual = 0, No Iterations 0
smoothSolver:  Solving for epsilon, Initial residual = 0.0481973, Final residual = 3.55672e-07, No Iterations 6
smoothSolver:  Solving for k, Initial residual = 0.0657004, Final residual = 9.50362e-07, No Iterations 7
Uncorrected Ubar = 11.4717, pressure gradient = -255.637
Rey = 5.7372, uTau = 0.383239, nut+ = 0, nuEff+ = 1, y+ = 2.39524, u+ = 2.39524, k+ = 0.989555, epsilon+ = 0.299469, omega+ = 3.36256
ExecutionTime = 0.114825 s  ClockTime = 0 s

Time = 99s

DICPCG:  Solving for Ux, Initial residual = 0.110072, Final residual = 3.64449e-08, No Iterations 3
DICPCG:  Solving for Uy, Initial residual = 0, Final residual = 0, No Iterations 0
smoothSolver:  Solving for epsilon, Initial residual = 0.0370297, Final residual = 3.74456e-07, No Iterations 6
smoothSolver:  Solving for k, Initial residual = 0.0529698, Final residual = 2.7956e-07, No Iterations 8
Uncorrected Ubar = 8.56672, pressure gradient = 257.165
Rey = 12.4049, uTau = 0.563529, nut+ = 0, nuEff+ = 1, y+ = 3.52205, u+ = 3.52205, k+ = 0.523758, epsilon+ = 0.073788, omega+ = 1.56535
ExecutionTime = 0.115695 s  ClockTime = 0 s

Time = 100s

DICPCG:  Solving for Ux, Initial residual = 0.115455, Final residual = 4.64816e-08, No Iterations 3
DICPCG:  Solving for Uy, Initial residual = 0, Final residual = 0, No Iterations 0
smoothSolver:  Solving for epsilon, Initial residual = 0.0389494, Final residual = 5.99409e-07, No Iterations 6
smoothSolver:  Solving for k, Initial residual = 0.0550493, Final residual = 3.38103e-07, No Iterations 8
Uncorrected Ubar = 11.3766, pressure gradient = -247.118
Rey = 6.87563, uTau = 0.419543, nut+ = 0, nuEff+ = 1, y+ = 2.62214, u+ = 2.62214, k+ = 1.03924, epsilon+ = 0.274871, omega+ = 2.9388
ExecutionTime = 0.119896 s  ClockTime = 0 s

Time = 101s

DICPCG:  Solving for Ux, Initial residual = 0.0919378, Final residual = 3.50154e-08, No Iterations 3
DICPCG:  Solving for Uy, Initial residual = 0, Final residual = 0, No Iterations 0
smoothSolver:  Solving for epsilon, Initial residual = 0.0310001, Final residual = 6.15632e-07, No Iterations 6
smoothSolver:  Solving for k, Initial residual = 0.0461392, Final residual = 4.31138e-07, No Iterations 8
Uncorrected Ubar = 8.65792, pressure gradient = 249.07
Rey = 13.1151, uTau = 0.579436, nut+ = 0, nuEff+ = 1, y+ = 3.62147, u+ = 3.62147, k+ = 0.601507, epsilon+ = 0.0830839, omega+ = 1.53474
ExecutionTime = 0.120951 s  ClockTime = 0 s

Time = 102s

DICPCG:  Solving for Ux, Initial residual = 0.0988444, Final residual = 4.32635e-08, No Iterations 3
DICPCG:  Solving for Uy, Initial residual = 0, Final residual = 0, No Iterations 0
smoothSolver:  Solving for epsilon, Initial residual = 0.0322437, Final residual = 8.86307e-07, No Iterations 6
smoothSolver:  Solving for k, Initial residual = 0.0469444, Final residual = 4.82844e-07, No Iterations 8
Uncorrected Ubar = 11.2881, pressure gradient = -238.944
Rey = 7.90381, uTau = 0.449819, nut+ = 0, nuEff+ = 1, y+ = 2.81137, u+ = 2.81137, k+ = 1.06658, epsilon+ = 0.252562, omega+ = 2.63106
ExecutionTime = 0.121834 s  ClockTime = 0 s

Time = 103s

DICPCG:  Solving for Ux, Initial residual = 0.0781883, Final residual = 3.42631e-08, No Iterations 3
DICPCG:  Solving for Uy, Initial residual = 0, Final residual = 0, No Iterations 0
smoothSolver:  Solving for epsilon, Initial residual = 0.026561, Final residual = 8.89351e-07, No Iterations 6
smoothSolver:  Solving for k, Initial residual = 0.0408511, Final residual = 5.83364e-07, No Iterations 8
Uncorrected Ubar = 8.74364, pressure gradient = 241.214
Rey = 13.7151, uTau = 0.592542, nut+ = 0, nuEff+ = 1, y+ = 3.70339, u+ = 3.70339, k+ = 0.663844, epsilon+ = 0.0896322, omega+ = 1.50022
ExecutionTime = 0.122941 s  ClockTime = 0 s

Time = 104s

DICPCG:  Solving for Ux, Initial residual = 0.0856609, Final residual = 4.11072e-08, No Iterations 3
DICPCG:  Solving for Uy, Initial residual = 0, Final residual = 0, No Iterations 0
smoothSolver:  Solving for epsilon, Initial residual = 0.0280631, Final residual = 2.35909e-07, No Iterations 7
smoothSolver:  Solving for k, Initial residual = 0.0405563, Final residual = 6.16573e-07, No Iterations 8
Uncorrected Ubar = 11.2044, pressure gradient = -231.014
Rey = 8.83712, uTau = 0.475637, nut+ = 0, nuEff+ = 1, y+ = 2.97273, u+ = 2.97273, k+ = 1.08223, epsilon+ = 0.23317, omega+ = 2.39393
ExecutionTime = 0.123892 s  ClockTime = 0 s

Time = 105s

DICPCG:  Solving for Ux, Initial residual = 0.0676339, Final residual = 3.3332e-08, No Iterations 3
DICPCG:  Solving for Uy, Initial residual = 0, Final residual = 0, No Iterations 0
smoothSolver:  Solving for epsilon, Initial residual = 0.0231251, Final residual = 2.37607e-07, No Iterations 7
smoothSolver:  Solving for k, Initial residual = 0.0365943, Final residual = 7.20924e-07, No Iterations 8
Uncorrected Ubar = 8.82511, pressure gradient = 233.532
Rey = 14.2315, uTau = 0.603595, nut+ = 0, nuEff+ = 1, y+ = 3.77247, u+ = 3.77247, k+ = 0.715889, epsilon+ = 0.0944403, omega+ = 1.46578
ExecutionTime = 0.124783 s  ClockTime = 0 s

Time = 106s

DICPCG:  Solving for Ux, Initial residual = 0.074985, Final residual = 3.87701e-08, No Iterations 3
DICPCG:  Solving for Uy, Initial residual = 0, Final residual = 0, No Iterations 0
smoothSolver:  Solving for epsilon, Initial residual = 0.0249765, Final residual = 3.14985e-07, No Iterations 7
smoothSolver:  Solving for k, Initial residual = 0.0356648, Final residual = 7.29232e-07, No Iterations 8
Uncorrected Ubar = 11.1248, pressure gradient = -223.266
Rey = 9.69413, uTau = 0.498166, nut+ = 0, nuEff+ = 1, y+ = 3.11354, u+ = 3.11354, k+ = 1.09202, epsilon+ = 0.216825, omega+ = 2.20617
ExecutionTime = 0.125833 s  ClockTime = 0 s

Time = 107s

DICPCG:  Solving for Ux, Initial residual = 0.0593103, Final residual = 3.20234e-08, No Iterations 3
DICPCG:  Solving for Uy, Initial residual = 0, Final residual = 0, No Iterations 0
smoothSolver:  Solving for epsilon, Initial residual = 0.020139, Final residual = 3.03421e-07, No Iterations 7
smoothSolver:  Solving for k, Initial residual = 0.0331407, Final residual = 8.3876e-07, No Iterations 8
Uncorrected Ubar = 8.90299, pressure gradient = 225.987
Rey = 14.6844, uTau = 0.613124, nut+ = 0, nuEff+ = 1, y+ = 3.83203, u+ = 3.83203, k+ = 0.760804, epsilon+ = 0.098187, omega+ = 1.43397
ExecutionTime = 0.126772 s  ClockTime = 0 s

Time = 108s

DICPCG:  Solving for Ux, Initial residual = 0.0662782, Final residual = 3.64381e-08, No Iterations 3
DICPCG:  Solving for Uy, Initial residual = 0, Final residual = 0, No Iterations 0
smoothSolver:  Solving for epsilon, Initial residual = 0.0223205, Final residual = 3.94144e-07, No Iterations 7
smoothSolver:  Solving for k, Initial residual = 0.0316943, Final residual = 8.16267e-07, No Iterations 8
Uncorrected Ubar = 11.0488, pressure gradient = -215.666
Rey = 10.4879, uTau = 0.51816, nut+ = 0, nuEff+ = 1, y+ = 3.2385, u+ = 3.2385, k+ = 1.09853, epsilon+ = 0.203135, omega+ = 2.05461
ExecutionTime = 0.127648 s  ClockTime = 0 s

Time = 109s

DICPCG:  Solving for Ux, Initial residual = 0.0526988, Final residual = 3.05344e-08, No Iterations 3
DICPCG:  Solving for Uy, Initial residual = 0, Final residual = 0, No Iterations 0
smoothSolver:  Solving for epsilon, Initial residual = 0.0173823, Final residual = 3.57755e-07, No Iterations 7
smoothSolver:  Solving for k, Initial residual = 0.0301251, Final residual = 9.30998e-07, No Iterations 8
Uncorrected Ubar = 8.97764, pressure gradient = 218.562
Rey = 15.087, uTau = 0.621471, nut+ = 0, nuEff+ = 1, y+ = 3.88419, u+ = 3.88419, k+ = 0.80034, epsilon+ = 0.101234, omega+ = 1.40543
ExecutionTime = 0.128513 s  ClockTime = 0 s

Time = 110s

DICPCG:  Solving for Ux, Initial residual = 0.0589734, Final residual = 3.40812e-08, No Iterations 3
DICPCG:  Solving for Uy, Initial residual = 0, Final residual = 0, No Iterations 0
smoothSolver:  Solving for epsilon, Initial residual = 0.0200819, Final residual = 4.68132e-07, No Iterations 7
smoothSolver:  Solving for k, Initial residual = 0.0281283, Final residual = 8.74292e-07, No Iterations 8
Uncorrected Ubar = 10.9762, pressure gradient = -208.189
Rey = 11.2271, uTau = 0.53611, nut+ = 0, nuEff+ = 1, y+ = 3.35069, u+ = 3.35069, k+ = 1.10299, epsilon+ = 0.191589, omega+ = 1.93
ExecutionTime = 0.129382 s  ClockTime = 0 s

Time = 111s

DICPCG:  Solving for Ux, Initial residual = 0.0473008, Final residual = 2.89515e-08, No Iterations 3
DICPCG:  Solving for Uy, Initial residual = 0, Final residual = 0, No Iterations 0
smoothSolver:  Solving for epsilon, Initial residual = 0.0147278, Final residual = 3.92536e-07, No Iterations 7
smoothSolver:  Solving for k, Initial residual = 0.0274099, Final residual = 9.96566e-07, No Iterations 8
Uncorrected Ubar = 9.0492, pressure gradient = 211.243
Rey = 15.4484, uTau = 0.628872, nut+ = 0, nuEff+ = 1, y+ = 3.93045, u+ = 3.93045, k+ = 0.83557, epsilon+ = 0.103777, omega+ = 1.37998
ExecutionTime = 0.130277 s  ClockTime = 0 s

Time = 112s

DICPCG:  Solving for Ux, Initial residual = 0.0527837, Final residual = 3.18016e-08, No Iterations 3
DICPCG:  Solving for Uy, Initial residual = 0, Final residual = 0, No Iterations 0
smoothSolver:  Solving for epsilon, Initial residual = 0.0180685, Final residual = 5.34222e-07, No Iterations 7
smoothSolver:  Solving for k, Initial residual = 0.0247416, Final residual = 8.98425e-07, No Iterations 8
Uncorrected Ubar = 10.9066, pressure gradient = -200.821
Rey = 11.9183, uTau = 0.552365, nut+ = 0, nuEff+ = 1, y+ = 3.45228, u+ = 3.45228, k+ = 1.10605, epsilon+ = 0.181749, omega+ = 1.82581
ExecutionTime = 0.131149 s  ClockTime = 0 s

Time = 113s

DICPCG:  Solving for Ux, Initial residual = 0.0428554, Final residual = 2.74128e-08, No Iterations 3
DICPCG:  Solving for Uy, Initial residual = 0, Final residual = 0, No Iterations 0
smoothSolver:  Solving for epsilon, Initial residual = 0.0120252, Final residual = 3.98276e-07, No Iterations 7
smoothSolver:  Solving for k, Initial residual = 0.0248474, Final residual = 2.96783e-07, No Iterations 9
Uncorrected Ubar = 9.11776, pressure gradient = 204.023
Rey = 15.7761, uTau = 0.635506, nut+ = 0, nuEff+ = 1, y+ = 3.97191, u+ = 3.97191, k+ = 0.86723, epsilon+ = 0.10593, omega+ = 1.35719
ExecutionTime = 0.13202 s  ClockTime = 0 s

Time = 114s

DICPCG:  Solving for Ux, Initial residual = 0.0474725, Final residual = 2.96569e-08, No Iterations 3
DICPCG:  Solving for Uy, Initial residual = 0, Final residual = 0, No Iterations 0
smoothSolver:  Solving for epsilon, Initial residual = 0.0162264, Final residual = 5.89374e-07, No Iterations 7
smoothSolver:  Solving for k, Initial residual = 0.021348, Final residual = 8.81911e-07, No Iterations 8
Uncorrected Ubar = 10.84, pressure gradient = -193.552
Rey = 12.5663, uTau = 0.567184, nut+ = 0, nuEff+ = 1, y+ = 3.5449, u+ = 3.5449, k+ = 1.10816, epsilon+ = 0.17328, omega+ = 1.73742
ExecutionTime = 0.13292 s  ClockTime = 0 s

Time = 115s

DICPCG:  Solving for Ux, Initial residual = 0.0390762, Final residual = 2.59192e-08, No Iterations 3
DICPCG:  Solving for Uy, Initial residual = 0, Final residual = 0, No Iterations 0
smoothSolver:  Solving for epsilon, Initial residual = 0.00934683, Final residual = 3.72482e-07, No Iterations 7
smoothSolver:  Solving for k, Initial residual = 0.0222341, Final residual = 3.01384e-07, No Iterations 9
Uncorrected Ubar = 9.18338, pressure gradient = 196.893
Rey = 16.0756, uTau = 0.64151, nut+ = 0, nuEff+ = 1, y+ = 4.00944, u+ = 4.00944, k+ = 0.895867, epsilon+ = 0.107772, omega+ = 1.33665
ExecutionTime = 0.133848 s  ClockTime = 0 s

Time = 116s

DICPCG:  Solving for Ux, Initial residual = 0.0428184, Final residual = 2.76436e-08, No Iterations 3
DICPCG:  Solving for Uy, Initial residual = 0, Final residual = 0, No Iterations 0
smoothSolver:  Solving for epsilon, Initial residual = 0.014565, Final residual = 6.33025e-07, No Iterations 7
smoothSolver:  Solving for k, Initial residual = 0.0173922, Final residual = 8.02201e-07, No Iterations 8
Uncorrected Ubar = 10.7764, pressure gradient = -186.372
Rey = 13.1752, uTau = 0.580764, nut+ = 0, nuEff+ = 1, y+ = 3.62977, u+ = 3.62977, k+ = 1.10961, epsilon+ = 0.165929, omega+ = 1.66153
ExecutionTime = 0.135347 s  ClockTime = 0 s

Time = 117s

DICPCG:  Solving for Ux, Initial residual = 0.0358214, Final residual = 2.44814e-08, No Iterations 3
DICPCG:  Solving for Uy, Initial residual = 0, Final residual = 0, No Iterations 0
smoothSolver:  Solving for epsilon, Initial residual = 0.0064329, Final residual = 3.00471e-07, No Iterations 7
smoothSolver:  Solving for k, Initial residual = 0.0191141, Final residual = 9.80362e-07, No Iterations 8
Uncorrected Ubar = 9.24607, pressure gradient = 189.847
Rey = 16.3516, uTau = 0.646993, nut+ = 0, nuEff+ = 1, y+ = 4.04371, u+ = 4.04371, k+ = 0.921894, epsilon+ = 0.109356, omega+ = 1.31801
ExecutionTime = 0.136276 s  ClockTime = 0 s

Time = 118s

DICPCG:  Solving for Ux, Initial residual = 0.0387462, Final residual = 2.58352e-08, No Iterations 3
DICPCG:  Solving for Uy, Initial residual = 0, Final residual = 0, No Iterations 0
smoothSolver:  Solving for epsilon, Initial residual = 0.0127016, Final residual = 6.46571e-07, No Iterations 7
smoothSolver:  Solving for k, Initial residual = 0.0136244, Final residual = 6.91185e-07, No Iterations 8
Uncorrected Ubar = 10.7158, pressure gradient = -179.271
Rey = 13.7482, uTau = 0.593258, nut+ = 0, nuEff+ = 1, y+ = 3.70786, u+ = 3.70786, k+ = 1.11065, epsilon+ = 0.159506, omega+ = 1.59572
ExecutionTime = 0.13716 s  ClockTime = 0 s

Time = 119s

DICPCG:  Solving for Ux, Initial residual = 0.0329649, Final residual = 2.31031e-08, No Iterations 3
DICPCG:  Solving for Uy, Initial residual = 0, Final residual = 0, No Iterations 0
smoothSolver:  Solving for epsilon, Initial residual = 0.00460335, Final residual = 9.59019e-07, No Iterations 6
smoothSolver:  Solving for k, Initial residual = 0.0163351, Final residual = 9.10444e-07, No Iterations 8
Uncorrected Ubar = 9.30586, pressure gradient = 182.877
Rey = 16.6077, uTau = 0.652041, nut+ = 0, nuEff+ = 1, y+ = 4.07525, u+ = 4.07525, k+ = 0.945637, epsilon+ = 0.110722, omega+ = 1.30097
ExecutionTime = 0.138021 s  ClockTime = 0 s

Time = 120s

DICPCG:  Solving for Ux, Initial residual = 0.0351387, Final residual = 2.41443e-08, No Iterations 3
DICPCG:  Solving for Uy, Initial residual = 0, Final residual = 0, No Iterations 0
smoothSolver:  Solving for epsilon, Initial residual = 0.0120338, Final residual = 7.05626e-07, No Iterations 7
smoothSolver:  Solving for k, Initial residual = 0.00669384, Final residual = 3.68982e-07, No Iterations 8
Uncorrected Ubar = 10.658, pressure gradient = -172.241
Rey = 14.2881, uTau = 0.604793, nut+ = 0, nuEff+ = 1, y+ = 3.77996, u+ = 3.77996, k+ = 1.11141, epsilon+ = 0.153856, omega+ = 1.53815
ExecutionTime = 0.138888 s  ClockTime = 0 s

Time = 121s

DICPCG:  Solving for Ux, Initial residual = 0.0304144, Final residual = 2.17777e-08, No Iterations 3
DICPCG:  Solving for Uy, Initial residual = 0, Final residual = 0, No Iterations 0
smoothSolver:  Solving for epsilon, Initial residual = 0.00129276, Final residual = 2.95665e-07, No Iterations 6
[...]
smoothSolver:  Solving for k, Initial residual = 6.02213e-07, Final residual = 6.02213e-07, No Iterations 0
Uncorrected Ubar = 10, pressure gradient = 12.694
Rey = 24.8229, uTau = 0.797161, nut+ = 0, nuEff+ = 1, y+ = 4.98226, u+ = 4.98226, k+ = 0.8954, epsilon+ = 0.0721431, omega+ = 0.895231
ExecutionTime = 0.896298 s  ClockTime = 1 s

Time = 971s

DICPCG:  Solving for Ux, Initial residual = 2.97548e-05, Final residual = 3.94302e-07, No Iterations 1
DICPCG:  Solving for Uy, Initial residual = 0, Final residual = 0, No Iterations 0
smoothSolver:  Solving for epsilon, Initial residual = 5.0745e-07, Final residual = 5.0745e-07, No Iterations 0
smoothSolver:  Solving for k, Initial residual = 6.02209e-07, Final residual = 6.02209e-07, No Iterations 0
Uncorrected Ubar = 10, pressure gradient = 12.6939
Rey = 24.8234, uTau = 0.797169, nut+ = 0, nuEff+ = 1, y+ = 4.98231, u+ = 4.98231, k+ = 0.895382, epsilon+ = 0.0721402, omega+ = 0.895213
ExecutionTime = 0.897091 s  ClockTime = 1 s

Time = 972s

DICPCG:  Solving for Ux, Initial residual = 2.96562e-05, Final residual = 3.93077e-07, No Iterations 1
DICPCG:  Solving for Uy, Initial residual = 0, Final residual = 0, No Iterations 0
smoothSolver:  Solving for epsilon, Initial residual = 5.07468e-07, Final residual = 5.07468e-07, No Iterations 0
smoothSolver:  Solving for k, Initial residual = 6.02205e-07, Final residual = 6.02205e-07, No Iterations 0
Uncorrected Ubar = 10, pressure gradient = 12.6938
Rey = 24.8239, uTau = 0.797177, nut+ = 0, nuEff+ = 1, y+ = 4.98236, u+ = 4.98236, k+ = 0.895364, epsilon+ = 0.0721372, omega+ = 0.895195
ExecutionTime = 0.897872 s  ClockTime = 1 s

Time = 973s

DICPCG:  Solving for Ux, Initial residual = 2.95579e-05, Final residual = 3.91856e-07, No Iterations 1
DICPCG:  Solving for Uy, Initial residual = 0, Final residual = 0, No Iterations 0
smoothSolver:  Solving for epsilon, Initial residual = 5.07487e-07, Final residual = 5.07487e-07, No Iterations 0
smoothSolver:  Solving for k, Initial residual = 6.02201e-07, Final residual = 6.02201e-07, No Iterations 0
Uncorrected Ubar = 10, pressure gradient = 12.6938
Rey = 24.8244, uTau = 0.797185, nut+ = 0, nuEff+ = 1, y+ = 4.98241, u+ = 4.98241, k+ = 0.895346, epsilon+ = 0.0721343, omega+ = 0.895177
ExecutionTime = 0.898653 s  ClockTime = 1 s

Time = 974s

DICPCG:  Solving for Ux, Initial residual = 2.94599e-05, Final residual = 3.90638e-07, No Iterations 1
DICPCG:  Solving for Uy, Initial residual = 0, Final residual = 0, No Iterations 0
smoothSolver:  Solving for epsilon, Initial residual = 5.07505e-07, Final residual = 5.07505e-07, No Iterations 0
smoothSolver:  Solving for k, Initial residual = 6.02197e-07, Final residual = 6.02197e-07, No Iterations 0
Uncorrected Ubar = 10, pressure gradient = 12.6937
Rey = 24.8249, uTau = 0.797193, nut+ = 0, nuEff+ = 1, y+ = 4.98246, u+ = 4.98246, k+ = 0.895328, epsilon+ = 0.0721314, omega+ = 0.895159
ExecutionTime = 0.899833 s  ClockTime = 1 s

Time = 975s

DICPCG:  Solving for Ux, Initial residual = 2.93623e-05, Final residual = 3.89424e-07, No Iterations 1
DICPCG:  Solving for Uy, Initial residual = 0, Final residual = 0, No Iterations 0
smoothSolver:  Solving for epsilon, Initial residual = 5.07524e-07, Final residual = 5.07524e-07, No Iterations 0
smoothSolver:  Solving for k, Initial residual = 6.02193e-07, Final residual = 6.02193e-07, No Iterations 0
Uncorrected Ubar = 10, pressure gradient = 12.6936
Rey = 24.8254, uTau = 0.797201, nut+ = 0, nuEff+ = 1, y+ = 4.98251, u+ = 4.98251, k+ = 0.89531, epsilon+ = 0.0721285, omega+ = 0.895141
ExecutionTime = 0.900782 s  ClockTime = 1 s

Time = 976s

DICPCG:  Solving for Ux, Initial residual = 2.9265e-05, Final residual = 3.88214e-07, No Iterations 1
DICPCG:  Solving for Uy, Initial residual = 0, Final residual = 0, No Iterations 0
smoothSolver:  Solving for epsilon, Initial residual = 5.07542e-07, Final residual = 5.07542e-07, No Iterations 0
smoothSolver:  Solving for k, Initial residual = 6.02189e-07, Final residual = 6.02189e-07, No Iterations 0
Uncorrected Ubar = 10, pressure gradient = 12.6936
Rey = 24.8259, uTau = 0.797209, nut+ = 0, nuEff+ = 1, y+ = 4.98256, u+ = 4.98256, k+ = 0.895292, epsilon+ = 0.0721256, omega+ = 0.895123
ExecutionTime = 0.901606 s  ClockTime = 1 s

Time = 977s

DICPCG:  Solving for Ux, Initial residual = 2.91681e-05, Final residual = 3.87007e-07, No Iterations 1
DICPCG:  Solving for Uy, Initial residual = 0, Final residual = 0, No Iterations 0
smoothSolver:  Solving for epsilon, Initial residual = 5.0756e-07, Final residual = 5.0756e-07, No Iterations 0
smoothSolver:  Solving for k, Initial residual = 6.02185e-07, Final residual = 6.02185e-07, No Iterations 0
Uncorrected Ubar = 10, pressure gradient = 12.6935
Rey = 24.8264, uTau = 0.797217, nut+ = 0, nuEff+ = 1, y+ = 4.98261, u+ = 4.98261, k+ = 0.895274, epsilon+ = 0.0721228, omega+ = 0.895105
ExecutionTime = 0.902404 s  ClockTime = 1 s

Time = 978s

DICPCG:  Solving for Ux, Initial residual = 2.90714e-05, Final residual = 3.85804e-07, No Iterations 1
DICPCG:  Solving for Uy, Initial residual = 0, Final residual = 0, No Iterations 0
smoothSolver:  Solving for epsilon, Initial residual = 5.07579e-07, Final residual = 5.07579e-07, No Iterations 0
smoothSolver:  Solving for k, Initial residual = 6.02181e-07, Final residual = 6.02181e-07, No Iterations 0
Uncorrected Ubar = 10, pressure gradient = 12.6934
Rey = 24.8269, uTau = 0.797225, nut+ = 0, nuEff+ = 1, y+ = 4.98266, u+ = 4.98266, k+ = 0.895256, epsilon+ = 0.0721199, omega+ = 0.895087
ExecutionTime = 0.903235 s  ClockTime = 1 s

Time = 979s

DICPCG:  Solving for Ux, Initial residual = 2.89751e-05, Final residual = 3.84605e-07, No Iterations 1
DICPCG:  Solving for Uy, Initial residual = 0, Final residual = 0, No Iterations 0
smoothSolver:  Solving for epsilon, Initial residual = 5.07597e-07, Final residual = 5.07597e-07, No Iterations 0
smoothSolver:  Solving for k, Initial residual = 6.02176e-07, Final residual = 6.02176e-07, No Iterations 0
Uncorrected Ubar = 10, pressure gradient = 12.6934
Rey = 24.8274, uTau = 0.797233, nut+ = 0, nuEff+ = 1, y+ = 4.98271, u+ = 4.98271, k+ = 0.895238, epsilon+ = 0.072117, omega+ = 0.895069
ExecutionTime = 0.904793 s  ClockTime = 1 s

Time = 980s

DICPCG:  Solving for Ux, Initial residual = 2.88792e-05, Final residual = 3.83409e-07, No Iterations 1
DICPCG:  Solving for Uy, Initial residual = 0, Final residual = 0, No Iterations 0
smoothSolver:  Solving for epsilon, Initial residual = 5.07615e-07, Final residual = 5.07615e-07, No Iterations 0
smoothSolver:  Solving for k, Initial residual = 6.02172e-07, Final residual = 6.02172e-07, No Iterations 0
Uncorrected Ubar = 10, pressure gradient = 12.6933
Rey = 24.8279, uTau = 0.797241, nut+ = 0, nuEff+ = 1, y+ = 4.98276, u+ = 4.98276, k+ = 0.895221, epsilon+ = 0.0721142, omega+ = 0.895052
ExecutionTime = 0.90571 s  ClockTime = 1 s

Time = 981s

DICPCG:  Solving for Ux, Initial residual = 2.87835e-05, Final residual = 3.82217e-07, No Iterations 1
DICPCG:  Solving for Uy, Initial residual = 0, Final residual = 0, No Iterations 0
smoothSolver:  Solving for epsilon, Initial residual = 5.07633e-07, Final residual = 5.07633e-07, No Iterations 0
smoothSolver:  Solving for k, Initial residual = 6.02168e-07, Final residual = 6.02168e-07, No Iterations 0
Uncorrected Ubar = 10, pressure gradient = 12.6932
Rey = 24.8284, uTau = 0.797249, nut+ = 0, nuEff+ = 1, y+ = 4.98281, u+ = 4.98281, k+ = 0.895203, epsilon+ = 0.0721114, omega+ = 0.895034
ExecutionTime = 0.906531 s  ClockTime = 1 s

Time = 982s

DICPCG:  Solving for Ux, Initial residual = 2.86882e-05, Final residual = 3.81028e-07, No Iterations 1
DICPCG:  Solving for Uy, Initial residual = 0, Final residual = 0, No Iterations 0
smoothSolver:  Solving for epsilon, Initial residual = 5.07651e-07, Final residual = 5.07651e-07, No Iterations 0
smoothSolver:  Solving for k, Initial residual = 6.02164e-07, Final residual = 6.02164e-07, No Iterations 0
Uncorrected Ubar = 10, pressure gradient = 12.6932
Rey = 24.8288, uTau = 0.797257, nut+ = 0, nuEff+ = 1, y+ = 4.98285, u+ = 4.98285, k+ = 0.895186, epsilon+ = 0.0721085, omega+ = 0.895017
ExecutionTime = 0.907317 s  ClockTime = 1 s

Time = 983s

DICPCG:  Solving for Ux, Initial residual = 2.85932e-05, Final residual = 3.79843e-07, No Iterations 1
DICPCG:  Solving for Uy, Initial residual = 0, Final residual = 0, No Iterations 0
smoothSolver:  Solving for epsilon, Initial residual = 5.07669e-07, Final residual = 5.07669e-07, No Iterations 0
smoothSolver:  Solving for k, Initial residual = 6.0216e-07, Final residual = 6.0216e-07, No Iterations 0
Uncorrected Ubar = 10, pressure gradient = 12.6931
Rey = 24.8293, uTau = 0.797265, nut+ = 0, nuEff+ = 1, y+ = 4.9829, u+ = 4.9829, k+ = 0.895168, epsilon+ = 0.0721057, omega+ = 0.894999
ExecutionTime = 0.908111 s  ClockTime = 1 s

Time = 984s

DICPCG:  Solving for Ux, Initial residual = 2.84985e-05, Final residual = 3.78661e-07, No Iterations 1
DICPCG:  Solving for Uy, Initial residual = 0, Final residual = 0, No Iterations 0
smoothSolver:  Solving for epsilon, Initial residual = 5.07687e-07, Final residual = 5.07687e-07, No Iterations 0
smoothSolver:  Solving for k, Initial residual = 6.02156e-07, Final residual = 6.02156e-07, No Iterations 0
Uncorrected Ubar = 10, pressure gradient = 12.693
Rey = 24.8298, uTau = 0.797272, nut+ = 0, nuEff+ = 1, y+ = 4.98295, u+ = 4.98295, k+ = 0.895151, epsilon+ = 0.0721029, omega+ = 0.894982
ExecutionTime = 0.90892 s  ClockTime = 1 s

Time = 985s

DICPCG:  Solving for Ux, Initial residual = 2.84042e-05, Final residual = 3.77484e-07, No Iterations 1
DICPCG:  Solving for Uy, Initial residual = 0, Final residual = 0, No Iterations 0
smoothSolver:  Solving for epsilon, Initial residual = 5.07705e-07, Final residual = 5.07705e-07, No Iterations 0
smoothSolver:  Solving for k, Initial residual = 6.02152e-07, Final residual = 6.02152e-07, No Iterations 0
Uncorrected Ubar = 10, pressure gradient = 12.693
Rey = 24.8303, uTau = 0.79728, nut+ = 0, nuEff+ = 1, y+ = 4.983, u+ = 4.983, k+ = 0.895133, epsilon+ = 0.0721001, omega+ = 0.894964
ExecutionTime = 0.909703 s  ClockTime = 1 s

Time = 986s

DICPCG:  Solving for Ux, Initial residual = 2.83102e-05, Final residual = 3.76309e-07, No Iterations 1
DICPCG:  Solving for Uy, Initial residual = 0, Final residual = 0, No Iterations 0
smoothSolver:  Solving for epsilon, Initial residual = 5.07722e-07, Final residual = 5.07722e-07, No Iterations 0
smoothSolver:  Solving for k, Initial residual = 6.02148e-07, Final residual = 6.02148e-07, No Iterations 0
Uncorrected Ubar = 10, pressure gradient = 12.6929
Rey = 24.8308, uTau = 0.797288, nut+ = 0, nuEff+ = 1, y+ = 4.98305, u+ = 4.98305, k+ = 0.895116, epsilon+ = 0.0720973, omega+ = 0.894947
ExecutionTime = 0.910551 s  ClockTime = 1 s

Time = 987s

DICPCG:  Solving for Ux, Initial residual = 2.82165e-05, Final residual = 3.75138e-07, No Iterations 1
DICPCG:  Solving for Uy, Initial residual = 0, Final residual = 0, No Iterations 0
smoothSolver:  Solving for epsilon, Initial residual = 5.0774e-07, Final residual = 5.0774e-07, No Iterations 0
smoothSolver:  Solving for k, Initial residual = 6.02144e-07, Final residual = 6.02144e-07, No Iterations 0
Uncorrected Ubar = 10, pressure gradient = 12.6928
Rey = 24.8312, uTau = 0.797295, nut+ = 0, nuEff+ = 1, y+ = 4.9831, u+ = 4.9831, k+ = 0.895099, epsilon+ = 0.0720945, omega+ = 0.89493
ExecutionTime = 0.91144 s  ClockTime = 1 s

Time = 988s

DICPCG:  Solving for Ux, Initial residual = 2.81231e-05, Final residual = 3.73971e-07, No Iterations 1
DICPCG:  Solving for Uy, Initial residual = 0, Final residual = 0, No Iterations 0
smoothSolver:  Solving for epsilon, Initial residual = 5.07757e-07, Final residual = 5.07757e-07, No Iterations 0
smoothSolver:  Solving for k, Initial residual = 6.0214e-07, Final residual = 6.0214e-07, No Iterations 0
Uncorrected Ubar = 10, pressure gradient = 12.6928
Rey = 24.8317, uTau = 0.797303, nut+ = 0, nuEff+ = 1, y+ = 4.98314, u+ = 4.98314, k+ = 0.895082, epsilon+ = 0.0720918, omega+ = 0.894913
ExecutionTime = 0.912252 s  ClockTime = 1 s

Time = 989s

DICPCG:  Solving for Ux, Initial residual = 2.803e-05, Final residual = 3.72807e-07, No Iterations 1
DICPCG:  Solving for Uy, Initial residual = 0, Final residual = 0, No Iterations 0
smoothSolver:  Solving for epsilon, Initial residual = 5.07775e-07, Final residual = 5.07775e-07, No Iterations 0
smoothSolver:  Solving for k, Initial residual = 6.02136e-07, Final residual = 6.02136e-07, No Iterations 0
Uncorrected Ubar = 10, pressure gradient = 12.6927
Rey = 24.8322, uTau = 0.797311, nut+ = 0, nuEff+ = 1, y+ = 4.98319, u+ = 4.98319, k+ = 0.895064, epsilon+ = 0.072089, omega+ = 0.894895
ExecutionTime = 0.913038 s  ClockTime = 1 s

Time = 990s

DICPCG:  Solving for Ux, Initial residual = 2.79373e-05, Final residual = 3.71647e-07, No Iterations 1
DICPCG:  Solving for Uy, Initial residual = 0, Final residual = 0, No Iterations 0
smoothSolver:  Solving for epsilon, Initial residual = 5.07792e-07, Final residual = 5.07792e-07, No Iterations 0
smoothSolver:  Solving for k, Initial residual = 6.02132e-07, Final residual = 6.02132e-07, No Iterations 0
Uncorrected Ubar = 10, pressure gradient = 12.6926
Rey = 24.8327, uTau = 0.797318, nut+ = 0, nuEff+ = 1, y+ = 4.98324, u+ = 4.98324, k+ = 0.895047, epsilon+ = 0.0720863, omega+ = 0.894878
ExecutionTime = 0.913835 s  ClockTime = 1 s

Time = 991s

DICPCG:  Solving for Ux, Initial residual = 2.78448e-05, Final residual = 3.7049e-07, No Iterations 1
DICPCG:  Solving for Uy, Initial residual = 0, Final residual = 0, No Iterations 0
smoothSolver:  Solving for epsilon, Initial residual = 5.0781e-07, Final residual = 5.0781e-07, No Iterations 0
smoothSolver:  Solving for k, Initial residual = 6.02128e-07, Final residual = 6.02128e-07, No Iterations 0
Uncorrected Ubar = 10, pressure gradient = 12.6926
Rey = 24.8331, uTau = 0.797326, nut+ = 0, nuEff+ = 1, y+ = 4.98329, u+ = 4.98329, k+ = 0.89503, epsilon+ = 0.0720835, omega+ = 0.894861
ExecutionTime = 0.914619 s  ClockTime = 1 s

Time = 992s

DICPCG:  Solving for Ux, Initial residual = 2.77527e-05, Final residual = 3.69337e-07, No Iterations 1
DICPCG:  Solving for Uy, Initial residual = 0, Final residual = 0, No Iterations 0
smoothSolver:  Solving for epsilon, Initial residual = 5.07827e-07, Final residual = 5.07827e-07, No Iterations 0
smoothSolver:  Solving for k, Initial residual = 6.02125e-07, Final residual = 6.02125e-07, No Iterations 0
Uncorrected Ubar = 10, pressure gradient = 12.6925
Rey = 24.8336, uTau = 0.797333, nut+ = 0, nuEff+ = 1, y+ = 4.98333, u+ = 4.98333, k+ = 0.895013, epsilon+ = 0.0720808, omega+ = 0.894844
ExecutionTime = 0.915447 s  ClockTime = 1 s

Time = 993s

DICPCG:  Solving for Ux, Initial residual = 2.76609e-05, Final residual = 3.68187e-07, No Iterations 1
DICPCG:  Solving for Uy, Initial residual = 0, Final residual = 0, No Iterations 0
smoothSolver:  Solving for epsilon, Initial residual = 5.07845e-07, Final residual = 5.07845e-07, No Iterations 0
smoothSolver:  Solving for k, Initial residual = 6.02121e-07, Final residual = 6.02121e-07, No Iterations 0
Uncorrected Ubar = 10, pressure gradient = 12.6925
Rey = 24.8341, uTau = 0.797341, nut+ = 0, nuEff+ = 1, y+ = 4.98338, u+ = 4.98338, k+ = 0.894996, epsilon+ = 0.0720781, omega+ = 0.894827
ExecutionTime = 0.916674 s  ClockTime = 1 s

Time = 994s

DICPCG:  Solving for Ux, Initial residual = 2.75694e-05, Final residual = 3.67041e-07, No Iterations 1
DICPCG:  Solving for Uy, Initial residual = 0, Final residual = 0, No Iterations 0
smoothSolver:  Solving for epsilon, Initial residual = 5.07862e-07, Final residual = 5.07862e-07, No Iterations 0
smoothSolver:  Solving for k, Initial residual = 6.02117e-07, Final residual = 6.02117e-07, No Iterations 0
Uncorrected Ubar = 10, pressure gradient = 12.6924
Rey = 24.8346, uTau = 0.797348, nut+ = 0, nuEff+ = 1, y+ = 4.98343, u+ = 4.98343, k+ = 0.89498, epsilon+ = 0.0720753, omega+ = 0.894811
ExecutionTime = 0.917537 s  ClockTime = 1 s

Time = 995s

DICPCG:  Solving for Ux, Initial residual = 2.74782e-05, Final residual = 3.65898e-07, No Iterations 1
DICPCG:  Solving for Uy, Initial residual = 0, Final residual = 0, No Iterations 0
smoothSolver:  Solving for epsilon, Initial residual = 5.07879e-07, Final residual = 5.07879e-07, No Iterations 0
smoothSolver:  Solving for k, Initial residual = 6.02113e-07, Final residual = 6.02113e-07, No Iterations 0
Uncorrected Ubar = 10, pressure gradient = 12.6923
Rey = 24.835, uTau = 0.797356, nut+ = 0, nuEff+ = 1, y+ = 4.98347, u+ = 4.98347, k+ = 0.894963, epsilon+ = 0.0720726, omega+ = 0.894794
ExecutionTime = 0.918324 s  ClockTime = 1 s

Time = 996s

DICPCG:  Solving for Ux, Initial residual = 2.73873e-05, Final residual = 3.64759e-07, No Iterations 1
DICPCG:  Solving for Uy, Initial residual = 0, Final residual = 0, No Iterations 0
smoothSolver:  Solving for epsilon, Initial residual = 5.07896e-07, Final residual = 5.07896e-07, No Iterations 0
smoothSolver:  Solving for k, Initial residual = 6.02109e-07, Final residual = 6.02109e-07, No Iterations 0
Uncorrected Ubar = 10, pressure gradient = 12.6923
Rey = 24.8355, uTau = 0.797363, nut+ = 0, nuEff+ = 1, y+ = 4.98352, u+ = 4.98352, k+ = 0.894946, epsilon+ = 0.0720699, omega+ = 0.894777
ExecutionTime = 0.919116 s  ClockTime = 1 s

Time = 997s

DICPCG:  Solving for Ux, Initial residual = 2.72968e-05, Final residual = 3.63623e-07, No Iterations 1
DICPCG:  Solving for Uy, Initial residual = 0, Final residual = 0, No Iterations 0
smoothSolver:  Solving for epsilon, Initial residual = 5.07913e-07, Final residual = 5.07913e-07, No Iterations 0
smoothSolver:  Solving for k, Initial residual = 6.02105e-07, Final residual = 6.02105e-07, No Iterations 0
Uncorrected Ubar = 10, pressure gradient = 12.6922
Rey = 24.8359, uTau = 0.797371, nut+ = 0, nuEff+ = 1, y+ = 4.98357, u+ = 4.98357, k+ = 0.894929, epsilon+ = 0.0720673, omega+ = 0.89476
ExecutionTime = 0.920442 s  ClockTime = 1 s

Time = 998s

DICPCG:  Solving for Ux, Initial residual = 2.72065e-05, Final residual = 3.62491e-07, No Iterations 1
DICPCG:  Solving for Uy, Initial residual = 0, Final residual = 0, No Iterations 0
smoothSolver:  Solving for epsilon, Initial residual = 5.0793e-07, Final residual = 5.0793e-07, No Iterations 0
smoothSolver:  Solving for k, Initial residual = 6.02101e-07, Final residual = 6.02101e-07, No Iterations 0
Uncorrected Ubar = 10, pressure gradient = 12.6922
Rey = 24.8364, uTau = 0.797378, nut+ = 0, nuEff+ = 1, y+ = 4.98361, u+ = 4.98361, k+ = 0.894913, epsilon+ = 0.0720646, omega+ = 0.894744
ExecutionTime = 0.92134 s  ClockTime = 1 s

Time = 999s

DICPCG:  Solving for Ux, Initial residual = 2.71166e-05, Final residual = 3.61362e-07, No Iterations 1
DICPCG:  Solving for Uy, Initial residual = 0, Final residual = 0, No Iterations 0
smoothSolver:  Solving for epsilon, Initial residual = 5.07947e-07, Final residual = 5.07947e-07, No Iterations 0
smoothSolver:  Solving for k, Initial residual = 6.02097e-07, Final residual = 6.02097e-07, No Iterations 0
Uncorrected Ubar = 10, pressure gradient = 12.6921
Rey = 24.8369, uTau = 0.797386, nut+ = 0, nuEff+ = 1, y+ = 4.98366, u+ = 4.98366, k+ = 0.894896, epsilon+ = 0.0720619, omega+ = 0.894727
ExecutionTime = 0.922137 s  ClockTime = 1 s

Time = 1000s

DICPCG:  Solving for Ux, Initial residual = 2.70269e-05, Final residual = 3.60236e-07, No Iterations 1
DICPCG:  Solving for Uy, Initial residual = 0, Final residual = 0, No Iterations 0
smoothSolver:  Solving for epsilon, Initial residual = 5.07964e-07, Final residual = 5.07964e-07, No Iterations 0
smoothSolver:  Solving for k, Initial residual = 6.02093e-07, Final residual = 6.02093e-07, No Iterations 0
Uncorrected Ubar = 10, pressure gradient = 12.692
Rey = 24.8373, uTau = 0.797393, nut+ = 0, nuEff+ = 1, y+ = 4.98371, u+ = 4.98371, k+ = 0.89488, epsilon+ = 0.0720592, omega+ = 0.894711
ExecutionTime = 0.924883 s  ClockTime = 1 s

End

