/*---------------------------------------------------------------------------*\
  =========                 |
  \\      /  F ield         | OpenFOAM: The Open Source CFD Toolbox
   \\    /   O peration     | Website:  https://openfoam.org
    \\  /    A nd           | Version:  12
     \\/     M anipulation  |
\*---------------------------------------------------------------------------*/
Build  : 12-cc05c1b03c38
Exec   : boundaryFoam
Date   : Oct 10 2024
Time   : 23:10:50
Host   : "DESKTOP-KBPC6IC"
PID    : 30523
I/O    : uncollated
Case   : /home/as/openfoam/OpenFOAM-12/test/boundaryLayer/boundaryWallFunctionsProfile
nProcs : 1
sigFpe : Enabling floating point exception trapping (FOAM_SIGFPE).
fileModificationChecking : Monitoring run-time modified files using timeStampMaster (fileModificationSkew 10)
allowSystemOperations : Allowing user-supplied system call operations

// * * * * * * * * * * * * * * * * * * * * * * * * * * * * * * * * * * * * * //
Create time

Create mesh for time = 0

Reading field U

Creating face flux

Selecting viscosity model constant
Selecting turbulence model type RAS
Selecting RAS turbulence model kEpsilon
RAS
{
    model           kEpsilon;
    turbulence      on;
    printCoeffs     on;
    Cmu             0.09;
    C1              1.44;
    C2              1.92;
    C3              0;
    sigmak          1;
    sigmaEps        1.3;
}

No fvModels present
No fvConstraints present
Generating wall data for patch: lowerWall
    Height to first cell centre y0 = 0.000625

Starting time loop

Time = 1s

DICPCG:  Solving for Ux, Initial residual = 1, Final residual = 1.09453e-08, No Iterations 4
DICPCG:  Solving for Uy, Initial residual = 0, Final residual = 0, No Iterations 0
smoothSolver:  Solving for epsilon, Initial residual = 0.995401, Final residual = 8.68468e-08, No Iterations 2
smoothSolver:  Solving for k, Initial residual = 0.999999, Final residual = 7.51523e-09, No Iterations 3
Uncorrected Ubar = 0.988504, pressure gradient = 2.47111
Rey = 60441.1, uTau = 0.0393356, nut+ = 0, nuEff+ = 1, y+ = 245.848, u+ = 245.848, k+ = 2.75355e-07, epsilon+ = 2.13858e-11, omega+ = 0.000862957
ExecutionTime = 0.021336 s  ClockTime = 0 s

Time = 2s

DICPCG:  Solving for Ux, Initial residual = 0.998752, Final residual = 1.34975e-07, No Iterations 3
DICPCG:  Solving for Uy, Initial residual = 0, Final residual = 0, No Iterations 0
smoothSolver:  Solving for epsilon, Initial residual = 0.995199, Final residual = 1.10195e-08, No Iterations 2
smoothSolver:  Solving for k, Initial residual = 0.299565, Final residual = 6.01387e-07, No Iterations 1
Uncorrected Ubar = 27.7436, pressure gradient = -2.39424
Rey = 15362.3, uTau = 0.0198312, nut+ = 0, nuEff+ = 1, y+ = 123.945, u+ = 123.945, k+ = 8.42206e-07, epsilon+ = 1.4104e-10, omega+ = 0.00186072
ExecutionTime = 0.022886 s  ClockTime = 0 s

Time = 3s

DICPCG:  Solving for Ux, Initial residual = 0.910439, Final residual = 1.41598e-07, No Iterations 3
DICPCG:  Solving for Uy, Initial residual = 0, Final residual = 0, No Iterations 0
smoothSolver:  Solving for epsilon, Initial residual = 0.574688, Final residual = 1.45163e-07, No Iterations 1
smoothSolver:  Solving for k, Initial residual = 0.635097, Final residual = 2.53744e-09, No Iterations 2
Uncorrected Ubar = -7.31816, pressure gradient = 2.35435
Rey = 52411.3, uTau = 0.0366296, nut+ = 0, nuEff+ = 1, y+ = 228.935, u+ = 228.935, k+ = 1.19797e-07, epsilon+ = 9.42011e-12, omega+ = 0.00087371
ExecutionTime = 0.026697 s  ClockTime = 0 s

Time = 4s

DICPCG:  Solving for Ux, Initial residual = 0.984612, Final residual = 1.32769e-07, No Iterations 3
DICPCG:  Solving for Uy, Initial residual = 0, Final residual = 0, No Iterations 0
smoothSolver:  Solving for epsilon, Initial residual = 0.568228, Final residual = 1.44591e-07, No Iterations 1
smoothSolver:  Solving for k, Initial residual = 0.627328, Final residual = 3.12046e-09, No Iterations 2
Uncorrected Ubar = 26.9177, pressure gradient = -2.2844
Rey = 18564.5, uTau = 0.0218003, nut+ = 0, nuEff+ = 1, y+ = 136.252, u+ = 136.252, k+ = 1.43668e-07, epsilon+ = 3.64361e-11, omega+ = 0.00281792
ExecutionTime = 0.03251 s  ClockTime = 0 s

Time = 5s

DICPCG:  Solving for Ux, Initial residual = 0.898478, Final residual = 1.37664e-07, No Iterations 3
DICPCG:  Solving for Uy, Initial residual = 0, Final residual = 0, No Iterations 0
smoothSolver:  Solving for epsilon, Initial residual = 0.576035, Final residual = 1.56085e-07, No Iterations 1
smoothSolver:  Solving for k, Initial residual = 0.73136, Final residual = 4.32063e-09, No Iterations 2
Uncorrected Ubar = -6.51495, pressure gradient = 2.2439
Rey = 47081.5, uTau = 0.0347172, nut+ = 0, nuEff+ = 1, y+ = 216.983, u+ = 216.983, k+ = 2.20376e-08, epsilon+ = 2.40644e-12, omega+ = 0.0012133
ExecutionTime = 0.036371 s  ClockTime = 0 s

Time = 6s

DICPCG:  Solving for Ux, Initial residual = 0.973089, Final residual = 1.34361e-07, No Iterations 3
DICPCG:  Solving for Uy, Initial residual = 0, Final residual = 0, No Iterations 0
smoothSolver:  Solving for epsilon, Initial residual = 0.573364, Final residual = 1.81416e-07, No Iterations 1
smoothSolver:  Solving for k, Initial residual = 0.377978, Final residual = 2.07632e-09, No Iterations 2
Uncorrected Ubar = 26.1306, pressure gradient = -2.17902
Rey = 19841.5, uTau = 0.0225376, nut+ = 0, nuEff+ = 1, y+ = 140.86, u+ = 140.86, k+ = 1.95959e-08, epsilon+ = 5.27105e-12, omega+ = 0.00298876
ExecutionTime = 0.037804 s  ClockTime = 0 s

Time = 7s

DICPCG:  Solving for Ux, Initial residual = 0.887113, Final residual = 1.33599e-07, No Iterations 3
DICPCG:  Solving for Uy, Initial residual = 0, Final residual = 0, No Iterations 0
smoothSolver:  Solving for epsilon, Initial residual = 0.60378, Final residual = 2.57411e-07, No Iterations 1
smoothSolver:  Solving for k, Initial residual = 0.129588, Final residual = 5.88584e-10, No Iterations 2
Uncorrected Ubar = -5.7482, pressure gradient = 2.13905
Rey = 43300.4, uTau = 0.033294, nut+ = 0, nuEff+ = 1, y+ = 208.088, u+ = 208.088, k+ = 3.23643e-09, epsilon+ = 4.14747e-13, omega+ = 0.00142389
ExecutionTime = 0.038853 s  ClockTime = 0 s

Time = 8s

DICPCG:  Solving for Ux, Initial residual = 0.962751, Final residual = 1.35036e-07, No Iterations 3
DICPCG:  Solving for Uy, Initial residual = 0, Final residual = 0, No Iterations 0
smoothSolver:  Solving for epsilon, Initial residual = 0.693034, Final residual = 9.70306e-07, No Iterations 1
smoothSolver:  Solving for k, Initial residual = 0.110608, Final residual = 2.51941e-10, No Iterations 2
Uncorrected Ubar = 25.3805, pressure gradient = -2.0782
Rey = 20117.3, uTau = 0.0226937, nut+ = 0, nuEff+ = 1, y+ = 141.836, u+ = 141.836, k+ = 2.47089e-09, epsilon+ = 6.92543e-13, omega+ = 0.00311423
ExecutionTime = 0.040759 s  ClockTime = 0 s

Time = 9s

DICPCG:  Solving for Ux, Initial residual = 0.876954, Final residual = 1.30647e-07, No Iterations 3
DICPCG:  Solving for Uy, Initial residual = 0, Final residual = 0, No Iterations 0
smoothSolver:  Solving for epsilon, Initial residual = 0.45538, Final residual = 4.67096e-11, No Iterations 2
smoothSolver:  Solving for k, Initial residual = 0.0934374, Final residual = 1.78261e-10, No Iterations 2
Uncorrected Ubar = -5.01675, pressure gradient = 2.0393
Rey = 40378.6, uTau = 0.0321511, nut+ = 0, nuEff+ = 1, y+ = 200.944, u+ = 200.944, k+ = 4.26838e-10, epsilon+ = 6.0975e-14, omega+ = 0.00158725
ExecutionTime = 0.042586 s  ClockTime = 0 s

Time = 10s

DICPCG:  Solving for Ux, Initial residual = 0.953196, Final residual = 1.34896e-07, No Iterations 3
DICPCG:  Solving for Uy, Initial residual = 0, Final residual = 0, No Iterations 0
smoothSolver:  Solving for epsilon, Initial residual = 0.136932, Final residual = 4.30397e-11, No Iterations 2
smoothSolver:  Solving for k, Initial residual = 0.106448, Final residual = 1.36035e-10, No Iterations 2
Uncorrected Ubar = 24.6655, pressure gradient = -1.98189
Rey = 19878.9, uTau = 0.0225588, nut+ = 0, nuEff+ = 1, y+ = 140.993, u+ = 140.993, k+ = 2.98206e-10, epsilon+ = 8.72286e-14, omega+ = 0.00325013
ExecutionTime = 0.044415 s  ClockTime = 0 s

Time = 11s

DICPCG:  Solving for Ux, Initial residual = 0.867283, Final residual = 1.2838e-07, No Iterations 3
DICPCG:  Solving for Uy, Initial residual = 0, Final residual = 0, No Iterations 0
smoothSolver:  Solving for epsilon, Initial residual = 0.0580962, Final residual = 2.62666e-11, No Iterations 2
smoothSolver:  Solving for k, Initial residual = 0.100023, Final residual = 1.25844e-10, No Iterations 2
Uncorrected Ubar = -4.31912, pressure gradient = 1.94433
Rey = 37965.7, uTau = 0.0311757, nut+ = 0, nuEff+ = 1, y+ = 194.848, u+ = 194.848, k+ = 5.28874e-11, epsilon+ = 8.22538e-15, omega+ = 0.00172807
ExecutionTime = 0.055756 s  ClockTime = 0 s

Time = 12s

DICPCG:  Solving for Ux, Initial residual = 0.941113, Final residual = 1.33883e-07, No Iterations 3
DICPCG:  Solving for Uy, Initial residual = 0, Final residual = 0, No Iterations 0
smoothSolver:  Solving for epsilon, Initial residual = 0.0767449, Final residual = 3.34919e-11, No Iterations 2
smoothSolver:  Solving for k, Initial residual = 0.114411, Final residual = 1.11851e-10, No Iterations 2
Uncorrected Ubar = 23.9838, pressure gradient = -1.88995
Rey = 19369.3, uTau = 0.0222678, nut+ = 0, nuEff+ = 1, y+ = 139.174, u+ = 139.174, k+ = 3.49636e-11, epsilon+ = 1.0704e-14, omega+ = 0.00340163
ExecutionTime = 0.059503 s  ClockTime = 0 s

Time = 13s

DICPCG:  Solving for Ux, Initial residual = 0.858016, Final residual = 1.2651e-07, No Iterations 3
DICPCG:  Solving for Uy, Initial residual = 0, Final residual = 0, No Iterations 0
smoothSolver:  Solving for epsilon, Initial residual = 0.0580817, Final residual = 2.56185e-11, No Iterations 2
smoothSolver:  Solving for k, Initial residual = 0.110155, Final residual = 1.09747e-10, No Iterations 2
Uncorrected Ubar = -3.65381, pressure gradient = 1.85386
Rey = 35881.9, uTau = 0.030308, nut+ = 0, nuEff+ = 1, y+ = 189.425, u+ = 189.425, k+ = 6.29451e-12, epsilon+ = 1.05199e-15, omega+ = 0.00185697
ExecutionTime = 0.064814 s  ClockTime = 0 s

Time = 14s

DICPCG:  Solving for Ux, Initial residual = 0.928379, Final residual = 1.32502e-07, No Iterations 3
DICPCG:  Solving for Uy, Initial residual = 0, Final residual = 0, No Iterations 0
smoothSolver:  Solving for epsilon, Initial residual = 0.0821125, Final residual = 3.11895e-11, No Iterations 2
smoothSolver:  Solving for k, Initial residual = 0.113222, Final residual = 9.33631e-11, No Iterations 2
bounding k, min: 8.06988e-17 max: 2.17853e-08 average: 1.1535e-09
Uncorrected Ubar = 23.3338, pressure gradient = -1.80222
Rey = 18713.9, uTau = 0.0218878, nut+ = 0, nuEff+ = 1, y+ = 136.799, u+ = 136.799, k+ = 4.01773e-12, epsilon+ = 1.28985e-15, omega+ = 0.00356711
ExecutionTime = 0.070905 s  ClockTime = 0 s

Time = 15s

DICPCG:  Solving for Ux, Initial residual = 0.848698, Final residual = 1.24818e-07, No Iterations 3
DICPCG:  Solving for Uy, Initial residual = 0, Final residual = 0, No Iterations 0
smoothSolver:  Solving for epsilon, Initial residual = 0.0604493, Final residual = 2.2953e-11, No Iterations 2
smoothSolver:  Solving for k, Initial residual = 0.113935, Final residual = 9.7066e-11, No Iterations 2
bounding k, min: 7.49551e-17 max: 2.90028e-08 average: 1.54197e-09
Uncorrected Ubar = -3.01936, pressure gradient = 1.76764
Rey = 34029.1, uTau = 0.0295152, nut+ = 0, nuEff+ = 1, y+ = 184.47, u+ = 184.47, k+ = 7.30211e-13, epsilon+ = 1.29859e-16, omega+ = 0.00197598
ExecutionTime = 0.07205 s  ClockTime = 0 s

Time = 16s

DICPCG:  Solving for Ux, Initial residual = 0.915594, Final residual = 1.3096e-07, No Iterations 3
DICPCG:  Solving for Uy, Initial residual = 0, Final residual = 0, No Iterations 0
smoothSolver:  Solving for epsilon, Initial residual = 0.0841078, Final residual = 2.84906e-11, No Iterations 2
smoothSolver:  Solving for k, Initial residual = 0.117944, Final residual = 8.64641e-11, No Iterations 2
bounding k, min: 9.01724e-17 max: 3.91523e-08 average: 2.08551e-09
Uncorrected Ubar = 22.7141, pressure gradient = -1.71851
Rey = 17980.9, uTau = 0.0214548, nut+ = 0, nuEff+ = 1, y+ = 134.093, u+ = 134.093, k+ = 4.8238e-13, epsilon+ = 1.53712e-16, omega+ = 0.00354059
ExecutionTime = 0.076516 s  ClockTime = 0 s

Time = 17s

DICPCG:  Solving for Ux, Initial residual = 0.839571, Final residual = 1.23261e-07, No Iterations 3
DICPCG:  Solving for Uy, Initial residual = 0, Final residual = 0, No Iterations 0
smoothSolver:  Solving for epsilon, Initial residual = 0.067564, Final residual = 2.29879e-11, No Iterations 2
smoothSolver:  Solving for k, Initial residual = 0.119294, Final residual = 9.10927e-11, No Iterations 2
bounding k, min: 7.5972e-17 max: 5.20499e-08 average: 2.78212e-09
Uncorrected Ubar = -2.41434, pressure gradient = 1.68546
Rey = 32350.2, uTau = 0.0287779, nut+ = 0, nuEff+ = 1, y+ = 179.862, u+ = 179.862, k+ = 2.68116e-13, epsilon+ = 1.65759e-17, omega+ = 0.000686927
ExecutionTime = 0.078124 s  ClockTime = 0 s

Time = 18s

DICPCG:  Solving for Ux, Initial residual = 0.902904, Final residual = 1.29343e-07, No Iterations 3
DICPCG:  Solving for Uy, Initial residual = 0, Final residual = 0, No Iterations 0
smoothSolver:  Solving for epsilon, Initial residual = 0.133625, Final residual = 4.17952e-11, No Iterations 2
smoothSolver:  Solving for k, Initial residual = 0.13645, Final residual = 9.20558e-11, No Iterations 2
bounding k, min: 8.72929e-17 max: 7.00878e-08 average: 3.75234e-09
Uncorrected Ubar = 22.1231, pressure gradient = -1.63867
Rey = 17209.5, uTau = 0.0209896, nut+ = 0, nuEff+ = 1, y+ = 131.185, u+ = 131.185, k+ = 5.04001e-13, epsilon+ = 5.85724e-17, omega+ = 0.00129128
ExecutionTime = 0.079989 s  ClockTime = 0 s

Time = 19s

DICPCG:  Solving for Ux, Initial residual = 0.830284, Final residual = 1.21745e-07, No Iterations 3
DICPCG:  Solving for Uy, Initial residual = 0, Final residual = 0, No Iterations 0
smoothSolver:  Solving for epsilon, Initial residual = 0.120111, Final residual = 3.77975e-11, No Iterations 2
smoothSolver:  Solving for k, Initial residual = 0.142987, Final residual = 1.00905e-10, No Iterations 2
bounding k, min: 1.14639e-16 max: 9.30981e-08 average: 4.99855e-09
Uncorrected Ubar = -1.83737, pressure gradient = 1.60713
Rey = 30809.2, uTau = 0.0280841, nut+ = 0, nuEff+ = 1, y+ = 175.525, u+ = 175.525, k+ = 2.81527e-13, epsilon+ = 1.82755e-17, omega+ = 0.000721285
ExecutionTime = 0.085509 s  ClockTime = 0 s

Time = 20s

DICPCG:  Solving for Ux, Initial residual = 0.890289, Final residual = 1.27684e-07, No Iterations 3
DICPCG:  Solving for Uy, Initial residual = 0, Final residual = 0, No Iterations 0
smoothSolver:  Solving for epsilon, Initial residual = 0.169173, Final residual = 5.00869e-11, No Iterations 2
smoothSolver:  Solving for k, Initial residual = 0.111474, Final residual = 7.08703e-11, No Iterations 2
bounding k, min: 1.37138e-16 max: 1.25125e-07 average: 6.72808e-09
Uncorrected Ubar = 21.5596, pressure gradient = -1.56252
Rey = 16423.3, uTau = 0.0205046, nut+ = 0, nuEff+ = 1, y+ = 128.154, u+ = 128.154, k+ = 5.28127e-13, epsilon+ = 6.43143e-17, omega+ = 0.00135309
ExecutionTime = 0.086575 s  ClockTime = 0 s

Time = 21s

DICPCG:  Solving for Ux, Initial residual = 0.820819, Final residual = 1.20246e-07, No Iterations 3
DICPCG:  Solving for Uy, Initial residual = 0, Final residual = 0, No Iterations 0
smoothSolver:  Solving for epsilon, Initial residual = 0.102339, Final residual = 3.04602e-11, No Iterations 2
smoothSolver:  Solving for k, Initial residual = 0.137484, Final residual = 9.16801e-11, No Iterations 2
bounding k, min: 1.29669e-16 max: 1.66136e-07 average: 8.95367e-09
Uncorrected Ubar = -1.28713, pressure gradient = 1.53246
Rey = 29382.2, uTau = 0.027426, nut+ = 0, nuEff+ = 1, y+ = 171.412, u+ = 171.412, k+ = 2.952e-13, epsilon+ = 2.00938e-17, omega+ = 0.000756316
ExecutionTime = 0.087497 s  ClockTime = 0 s

Time = 22s

DICPCG:  Solving for Ux, Initial residual = 0.877529, Final residual = 1.25969e-07, No Iterations 3
DICPCG:  Solving for Uy, Initial residual = 0, Final residual = 0, No Iterations 0
smoothSolver:  Solving for epsilon, Initial residual = 0.152305, Final residual = 4.34565e-11, No Iterations 2
smoothSolver:  Solving for k, Initial residual = 0.137442, Final residual = 8.38326e-11, No Iterations 2
bounding k, min: 1.80406e-16 max: 2.22949e-07 average: 1.20335e-08
Uncorrected Ubar = 21.0221, pressure gradient = -1.48989
Rey = 15636.9, uTau = 0.0200076, nut+ = 0, nuEff+ = 1, y+ = 125.048, u+ = 125.048, k+ = 5.54687e-13, epsilon+ = 7.09457e-17, omega+ = 0.00142114
ExecutionTime = 0.088469 s  ClockTime = 0 s

Time = 23s

DICPCG:  Solving for Ux, Initial residual = 0.811315, Final residual = 1.18771e-07, No Iterations 3
DICPCG:  Solving for Uy, Initial residual = 0, Final residual = 0, No Iterations 0
smoothSolver:  Solving for epsilon, Initial residual = 0.125619, Final residual = 3.59259e-11, No Iterations 2
smoothSolver:  Solving for k, Initial residual = 0.143704, Final residual = 9.20423e-11, No Iterations 2
bounding k, min: 2.00553e-16 max: 2.9601e-07 average: 1.6003e-08
Uncorrected Ubar = -0.762319, pressure gradient = 1.46127
Rey = 28052.1, uTau = 0.026798, nut+ = 0, nuEff+ = 1, y+ = 167.488, u+ = 167.488, k+ = 4.56034e-13, epsilon+ = 2.20444e-17, omega+ = 0.000537104
ExecutionTime = 0.095399 s  ClockTime = 0 s

Time = 24s

DICPCG:  Solving for Ux, Initial residual = 0.86455, Final residual = 1.24202e-07, No Iterations 3
DICPCG:  Solving for Uy, Initial residual = 0, Final residual = 0, No Iterations 0
smoothSolver:  Solving for epsilon, Initial residual = 0.162602, Final residual = 4.53213e-11, No Iterations 2
smoothSolver:  Solving for k, Initial residual = 0.111018, Final residual = 6.58487e-11, No Iterations 2
bounding k, min: 2.02635e-16 max: 3.96682e-07 average: 2.14829e-08
Uncorrected Ubar = 20.5095, pressure gradient = -1.42062
Rey = 14859.5, uTau = 0.0195039, nut+ = 0, nuEff+ = 1, y+ = 121.9, u+ = 121.9, k+ = 1.27855e-12, epsilon+ = 1.15874e-16, omega+ = 0.00100699
ExecutionTime = 0.102982 s  ClockTime = 1 s

Time = 25s

DICPCG:  Solving for Ux, Initial residual = 0.801736, Final residual = 1.17311e-07, No Iterations 3
DICPCG:  Solving for Uy, Initial residual = 0, Final residual = 0, No Iterations 0
smoothSolver:  Solving for epsilon, Initial residual = 0.10288, Final residual = 2.85909e-11, No Iterations 2
smoothSolver:  Solving for k, Initial residual = 0.13723, Final residual = 8.54636e-11, No Iterations 2
bounding k, min: 2.04328e-16 max: 5.26856e-07 average: 2.85557e-08
Uncorrected Ubar = -0.261679, pressure gradient = 1.39339
Rey = 26806.4, uTau = 0.0261963, nut+ = 0, nuEff+ = 1, y+ = 163.727, u+ = 163.727, k+ = 6.26884e-13, epsilon+ = 5.28779e-17, omega+ = 0.000937226
ExecutionTime = 0.107908 s  ClockTime = 1 s

Time = 26s

DICPCG:  Solving for Ux, Initial residual = 0.851509, Final residual = 1.22414e-07, No Iterations 3
DICPCG:  Solving for Uy, Initial residual = 0, Final residual = 0, No Iterations 0
smoothSolver:  Solving for epsilon, Initial residual = 0.143714, Final residual = 3.95651e-11, No Iterations 2
smoothSolver:  Solving for k, Initial residual = 0.138749, Final residual = 8.08916e-11, No Iterations 2
bounding k, min: 2.05405e-16 max: 7.04993e-07 average: 3.82991e-08
Uncorrected Ubar = 20.0204, pressure gradient = -1.35456
Rey = 14096.6, uTau = 0.0189967, nut+ = 0, nuEff+ = 1, y+ = 118.729, u+ = 118.729, k+ = 1.73256e-12, epsilon+ = 1.69132e-16, omega+ = 0.00108466
ExecutionTime = 0.111054 s  ClockTime = 1 s

Time = 27s

DICPCG:  Solving for Ux, Initial residual = 0.791682, Final residual = 1.15804e-07, No Iterations 3
DICPCG:  Solving for Uy, Initial residual = 0, Final residual = 0, No Iterations 0
smoothSolver:  Solving for epsilon, Initial residual = 0.127758, Final residual = 3.4779e-11, No Iterations 2
smoothSolver:  Solving for k, Initial residual = 0.143578, Final residual = 8.77877e-11, No Iterations 2
bounding k, min: 2.0635e-16 max: 9.37119e-07 average: 5.08909e-08
Uncorrected Ubar = 0.216063, pressure gradient = 1.32868
Rey = 25635, uTau = 0.0256175, nut+ = 0, nuEff+ = 1, y+ = 160.109, u+ = 160.109, k+ = 1.95777e-12, epsilon+ = 7.43301e-17, omega+ = 0.000421853
ExecutionTime = 0.116738 s  ClockTime = 1 s

Time = 28s

DICPCG:  Solving for Ux, Initial residual = 0.838397, Final residual = 1.20612e-07, No Iterations 3
DICPCG:  Solving for Uy, Initial residual = 0, Final residual = 0, No Iterations 0
smoothSolver:  Solving for epsilon, Initial residual = 0.156877, Final residual = 4.30945e-11, No Iterations 2
smoothSolver:  Solving for k, Initial residual = 0.113953, Final residual = 6.59113e-11, No Iterations 2
bounding k, min: 2.07231e-16 max: 1.25166e-06 average: 6.82044e-08
Uncorrected Ubar = 19.5536, pressure gradient = -1.29156
Rey = 13351.5, uTau = 0.0184878, nut+ = 0, nuEff+ = 1, y+ = 115.549, u+ = 115.549, k+ = 5.92686e-12, epsilon+ = 5.63072e-16, omega+ = 0.00105559
ExecutionTime = 0.120584 s  ClockTime = 1 s

Time = 29s

DICPCG:  Solving for Ux, Initial residual = 0.781451, Final residual = 1.14296e-07, No Iterations 3
DICPCG:  Solving for Uy, Initial residual = 0, Final residual = 0, No Iterations 0
smoothSolver:  Solving for epsilon, Initial residual = 0.107284, Final residual = 2.87742e-11, No Iterations 2
smoothSolver:  Solving for k, Initial residual = 0.138091, Final residual = 8.35817e-11, No Iterations 2
bounding k, min: 2.07827e-16 max: 1.66633e-06 average: 9.06045e-08
Uncorrected Ubar = 0.672217, pressure gradient = 1.26698
Rey = 24529.6, uTau = 0.0250591, nut+ = 0, nuEff+ = 1, y+ = 156.619, u+ = 156.619, k+ = 2.90007e-12, epsilon+ = 2.63029e-16, omega+ = 0.00100775
ExecutionTime = 0.125073 s  ClockTime = 1 s

Time = 30s

DICPCG:  Solving for Ux, Initial residual = 0.825217, Final residual = 1.18802e-07, No Iterations 3
DICPCG:  Solving for Uy, Initial residual = 0, Final residual = 0, No Iterations 0
smoothSolver:  Solving for epsilon, Initial residual = 0.14032, Final residual = 3.88893e-11, No Iterations 2
smoothSolver:  Solving for k, Initial residual = 0.138554, Final residual = 8.02441e-11, No Iterations 2
bounding k, min: 2.08305e-16 max: 2.21978e-06 average: 1.21348e-07
Uncorrected Ubar = 19.1076, pressure gradient = -1.23148
Rey = 12625.3, uTau = 0.017978, nut+ = 0, nuEff+ = 1, y+ = 112.362, u+ = 112.362, k+ = 8.18755e-12, epsilon+ = 8.92576e-16, omega+ = 0.00121129
ExecutionTime = 0.127237 s  ClockTime = 1 s

Time = 31s

DICPCG:  Solving for Ux, Initial residual = 0.770999, Final residual = 1.12781e-07, No Iterations 3
DICPCG:  Solving for Uy, Initial residual = 0, Final residual = 0, No Iterations 0
smoothSolver:  Solving for epsilon, Initial residual = 0.130716, Final residual = 3.47026e-11, No Iterations 2
smoothSolver:  Solving for k, Initial residual = 0.143531, Final residual = 8.6686e-11, No Iterations 2
bounding k, min: 2.0901e-16 max: 2.96289e-06 average: 1.61157e-07
Uncorrected Ubar = 1.10821, pressure gradient = 1.20814
Rey = 23482.7, uTau = 0.0245185, nut+ = 0, nuEff+ = 1, y+ = 153.241, u+ = 153.241, k+ = 8.69602e-12, epsilon+ = 3.74914e-16, omega+ = 0.000479037
ExecutionTime = 0.13539 s  ClockTime = 1 s

Time = 32s

DICPCG:  Solving for Ux, Initial residual = 0.811695, Final residual = 1.16942e-07, No Iterations 3
DICPCG:  Solving for Uy, Initial residual = 0, Final residual = 0, No Iterations 0
smoothSolver:  Solving for epsilon, Initial residual = 0.149828, Final residual = 4.2513e-11, No Iterations 2
smoothSolver:  Solving for k, Initial residual = 0.11622, Final residual = 6.8113e-11, No Iterations 2
bounding k, min: 2.0923e-16 max: 3.93084e-06 average: 2.15686e-07
Uncorrected Ubar = 18.6811, pressure gradient = -1.17418
Rey = 11917.2, uTau = 0.0174666, nut+ = 0, nuEff+ = 1, y+ = 109.166, u+ = 109.166, k+ = 2.6965e-11, epsilon+ = 2.87572e-15, omega+ = 0.00118496
ExecutionTime = 0.1383 s  ClockTime = 1 s

Time = 33s

DICPCG:  Solving for Ux, Initial residual = 0.760244, Final residual = 1.11235e-07, No Iterations 3
DICPCG:  Solving for Uy, Initial residual = 0, Final residual = 0, No Iterations 0
smoothSolver:  Solving for epsilon, Initial residual = 0.113172, Final residual = 2.99048e-11, No Iterations 2
smoothSolver:  Solving for k, Initial residual = 0.138936, Final residual = 8.44741e-11, No Iterations 2
bounding k, min: 2.09682e-16 max: 5.26915e-06 average: 2.86306e-07
Uncorrected Ubar = 1.52567, pressure gradient = 1.15202
Rey = 22486.7, uTau = 0.0239929, nut+ = 0, nuEff+ = 1, y+ = 149.956, u+ = 149.956, k+ = 1.30206e-11, epsilon+ = 1.27103e-15, omega+ = 0.00108463
ExecutionTime = 0.140857 s  ClockTime = 1 s

Time = 34s

DICPCG:  Solving for Ux, Initial residual = 0.798135, Final residual = 1.15036e-07, No Iterations 3
DICPCG:  Solving for Uy, Initial residual = 0, Final residual = 0, No Iterations 0
smoothSolver:  Solving for epsilon, Initial residual = 0.133391, Final residual = 3.96617e-11, No Iterations 2
smoothSolver:  Solving for k, Initial residual = 0.137691, Final residual = 8.28069e-11, No Iterations 2
bounding k, min: 2.10057e-16 max: 6.9433e-06 average: 3.82774e-07
Uncorrected Ubar = 18.272, pressure gradient = -1.11952
Rey = 11224.2, uTau = 0.0169511, nut+ = 0, nuEff+ = 1, y+ = 105.944, u+ = 105.944, k+ = 3.79533e-11, epsilon+ = 4.64809e-15, omega+ = 0.00136076
ExecutionTime = 0.149309 s  ClockTime = 1 s

Time = 35s

DICPCG:  Solving for Ux, Initial residual = 0.748958, Final residual = 1.0955e-07, No Iterations 3
DICPCG:  Solving for Uy, Initial residual = 0, Final residual = 0, No Iterations 0
smoothSolver:  Solving for epsilon, Initial residual = 0.136006, Final residual = 3.61808e-11, No Iterations 2
smoothSolver:  Solving for k, Initial residual = 0.143587, Final residual = 8.88686e-11, No Iterations 2
bounding k, min: 2.10315e-16 max: 9.37036e-06 average: 5.07519e-07
Uncorrected Ubar = 1.92661, pressure gradient = 1.0985
Rey = 21533.9, uTau = 0.0234791, nut+ = 0, nuEff+ = 1, y+ = 146.744, u+ = 146.744, k+ = 3.76398e-11, epsilon+ = 1.83735e-15, omega+ = 0.000542378
ExecutionTime = 0.152682 s  ClockTime = 1 s

Time = 36s

DICPCG:  Solving for Ux, Initial residual = 0.784612, Final residual = 1.12937e-07, No Iterations 3
DICPCG:  Solving for Uy, Initial residual = 0, Final residual = 0, No Iterations 0
smoothSolver:  Solving for epsilon, Initial residual = 0.135373, Final residual = 4.40012e-11, No Iterations 2
smoothSolver:  Solving for k, Initial residual = 0.117425, Final residual = 7.39217e-11, No Iterations 2
bounding k, min: 2.10555e-16 max: 1.22045e-05 average: 6.77076e-07
Uncorrected Ubar = 17.8782, pressure gradient = -1.06738
Rey = 10540, uTau = 0.0164263, nut+ = 0, nuEff+ = 1, y+ = 102.665, u+ = 102.665, k+ = 1.20974e-10, epsilon+ = 1.4592e-14, omega+ = 0.00134023
ExecutionTime = 0.154911 s  ClockTime = 1 s

Time = 37s

DICPCG:  Solving for Ux, Initial residual = 0.736774, Final residual = 1.07383e-07, No Iterations 3
DICPCG:  Solving for Uy, Initial residual = 0, Final residual = 0, No Iterations 0
smoothSolver:  Solving for epsilon, Initial residual = 0.12067, Final residual = 3.32919e-11, No Iterations 2
smoothSolver:  Solving for k, Initial residual = 0.13979, Final residual = 8.93336e-11, No Iterations 2
bounding k, min: 2.10945e-16 max: 1.66398e-05 average: 8.94993e-07
Uncorrected Ubar = 2.31366, pressure gradient = 1.04741
Rey = 20615, uTau = 0.0229727, nut+ = 0, nuEff+ = 1, y+ = 143.579, u+ = 143.579, k+ = 5.80052e-11, epsilon+ = 6.00064e-15, omega+ = 0.00114944
ExecutionTime = 0.15732 s  ClockTime = 1 s

Time = 38s

DICPCG:  Solving for Ux, Initial residual = 0.771232, Final residual = 1.10118e-07, No Iterations 3
DICPCG:  Solving for Uy, Initial residual = 0, Final residual = 0, No Iterations 0
smoothSolver:  Solving for epsilon, Initial residual = 0.112445, Final residual = 4.35194e-11, No Iterations 2
smoothSolver:  Solving for k, Initial residual = 0.135026, Final residual = 9.15738e-11, No Iterations 2
bounding k, min: 2.10992e-16 max: 2.12296e-05 average: 1.18799e-06
Uncorrected Ubar = 17.4966, pressure gradient = -1.01759
Rey = 9854.16, uTau = 0.0158829, nut+ = 0, nuEff+ = 1, y+ = 99.2681, u+ = 99.2681, k+ = 1.78598e-10, epsilon+ = 2.46287e-14, omega+ = 0.00153223
ExecutionTime = 0.160137 s  ClockTime = 1 s

Time = 39s

DICPCG:  Solving for Ux, Initial residual = 0.723465, Final residual = 1.04426e-07, No Iterations 3
DICPCG:  Solving for Uy, Initial residual = 0, Final residual = 0, No Iterations 0
smoothSolver:  Solving for epsilon, Initial residual = 0.151658, Final residual = 4.72608e-11, No Iterations 2
smoothSolver:  Solving for k, Initial residual = 0.143267, Final residual = 9.60012e-11, No Iterations 2
bounding k, min: 2.11332e-16 max: 2.9362e-05 average: 1.55774e-06
Uncorrected Ubar = 2.6902, pressure gradient = 0.998598
Rey = 19720.2, uTau = 0.0224686, nut+ = 0, nuEff+ = 1, y+ = 140.429, u+ = 140.429, k+ = 1.62456e-10, epsilon+ = 9.05111e-15, omega+ = 0.000619046
ExecutionTime = 0.174272 s  ClockTime = 1 s

Time = 40s

DICPCG:  Solving for Ux, Initial residual = 0.758129, Final residual = 1.0701e-07, No Iterations 3
DICPCG:  Solving for Uy, Initial residual = 0, Final residual = 0, No Iterations 0
smoothSolver:  Solving for epsilon, Initial residual = 0.100809, Final residual = 5.32559e-11, No Iterations 2
smoothSolver:  Solving for k, Initial residual = 0.116052, Final residual = 8.80727e-11, No Iterations 2
bounding k, min: 2.11513e-16 max: 3.60873e-05 average: 2.04249e-06
Uncorrected Ubar = 17.1232, pressure gradient = -0.969962
Rey = 9151.39, uTau = 0.0153061, nut+ = 0, nuEff+ = 1, y+ = 95.6629, u+ = 95.6629, k+ = 5.53039e-10, epsilon+ = 7.65076e-14, omega+ = 0.00153711
ExecutionTime = 0.175919 s  ClockTime = 1 s

Time = 41s

DICPCG:  Solving for Ux, Initial residual = 0.708318, Final residual = 1.01608e-07, No Iterations 3
DICPCG:  Solving for Uy, Initial residual = 0, Final residual = 0, No Iterations 0
smoothSolver:  Solving for epsilon, Initial residual = 0.169964, Final residual = 6.46311e-11, No Iterations 2
smoothSolver:  Solving for k, Initial residual = 0.139243, Final residual = 9.81244e-11, No Iterations 2
bounding k, min: 2.11673e-16 max: 5.07946e-05 average: 2.62556e-06
Uncorrected Ubar = 3.06018, pressure gradient = 0.951824
Rey = 18841.5, uTau = 0.0219623, nut+ = 0, nuEff+ = 1, y+ = 137.264, u+ = 137.264, k+ = 2.67988e-10, epsilon+ = 2.85128e-14, omega+ = 0.00118218
ExecutionTime = 0.177661 s  ClockTime = 1 s

Time = 42s

DICPCG:  Solving for Ux, Initial residual = 0.743743, Final residual = 1.02889e-07, No Iterations 3
DICPCG:  Solving for Uy, Initial residual = 0, Final residual = 0, No Iterations 0
smoothSolver:  Solving for epsilon, Initial residual = 0.170543, Final residual = 8.9457e-11, No Iterations 2
smoothSolver:  Solving for k, Initial residual = 0.126316, Final residual = 1.1035e-10, No Iterations 2
bounding k, min: 2.11807e-16 max: 5.83922e-05 average: 3.34813e-06
Uncorrected Ubar = 16.7548, pressure gradient = -0.924217
Rey = 8417.46, uTau = 0.0146795, nut+ = 0, nuEff+ = 1, y+ = 91.7467, u+ = 91.7467, k+ = 9.01383e-10, epsilon+ = 1.42528e-13, omega+ = 0.0017569
ExecutionTime = 0.189667 s  ClockTime = 1 s

Time = 43s

DICPCG:  Solving for Ux, Initial residual = 0.690473, Final residual = 9.55326e-08, No Iterations 3
DICPCG:  Solving for Uy, Initial residual = 0, Final residual = 0, No Iterations 0
smoothSolver:  Solving for epsilon, Initial residual = 0.26911, Final residual = 1.30951e-10, No Iterations 2
smoothSolver:  Solving for k, Initial residual = 0.144871, Final residual = 1.16559e-10, No Iterations 2
bounding k, min: 2.12131e-16 max: 8.36105e-05 average: 4.1269e-06
Uncorrected Ubar = 3.42611, pressure gradient = 0.906736
Rey = 17982.3, uTau = 0.0214557, nut+ = 0, nuEff+ = 1, y+ = 134.098, u+ = 134.098, k+ = 7.05715e-10, epsilon+ = 4.69275e-14, omega+ = 0.000738848
ExecutionTime = 0.191422 s  ClockTime = 1 s

Time = 44s

DICPCG:  Solving for Ux, Initial residual = 0.729468, Final residual = 9.53783e-08, No Iterations 3
DICPCG:  Solving for Uy, Initial residual = 0, Final residual = 0, No Iterations 0
smoothSolver:  Solving for epsilon, Initial residual = 0.266593, Final residual = 1.58355e-10, No Iterations 2
smoothSolver:  Solving for k, Initial residual = 0.107585, Final residual = 1.00012e-10, No Iterations 2
bounding k, min: 2.12106e-16 max: 8.65653e-05 average: 4.99566e-06
Uncorrected Ubar = 16.3922, pressure gradient = -0.879925
Rey = 7658.47, uTau = 0.014002, nut+ = 0, nuEff+ = 1, y+ = 87.5127, u+ = 87.5127, k+ = 2.63341e-09, epsilon+ = 4.32735e-13, omega+ = 0.00182583
ExecutionTime = 0.193474 s  ClockTime = 1 s

Time = 45s

DICPCG:  Solving for Ux, Initial residual = 0.669959, Final residual = 8.14896e-08, No Iterations 3
DICPCG:  Solving for Uy, Initial residual = 0, Final residual = 0, No Iterations 0
smoothSolver:  Solving for epsilon, Initial residual = 0.31153, Final residual = 2.01783e-10, No Iterations 2
smoothSolver:  Solving for k, Initial residual = 0.156642, Final residual = 1.96525e-10, No Iterations 2
bounding k, min: 2.12341e-16 max: 0.000125261 average: 5.75817e-06
Uncorrected Ubar = 3.78424, pressure gradient = 0.862899
Rey = 17171.4, uTau = 0.0209664, nut+ = 0, nuEff+ = 1, y+ = 131.04, u+ = 131.04, k+ = 1.29638e-09, epsilon+ = 1.36797e-13, omega+ = 0.00117248
ExecutionTime = 0.196125 s  ClockTime = 1 s

Time = 46s

DICPCG:  Solving for Ux, Initial residual = 0.715068, Final residual = 8.63563e-08, No Iterations 3
DICPCG:  Solving for Uy, Initial residual = 0, Final residual = 0, No Iterations 0
smoothSolver:  Solving for epsilon, Initial residual = 0.311619, Final residual = 2.25198e-10, No Iterations 2
smoothSolver:  Solving for k, Initial residual = 0.128019, Final residual = 1.76885e-10, No Iterations 2
bounding k, min: 2.12522e-16 max: 0.000118033 average: 6.55867e-06
Uncorrected Ubar = 16.0442, pressure gradient = -0.836752
Rey = 6920.11, uTau = 0.0133099, nut+ = 0, nuEff+ = 1, y+ = 83.1872, u+ = 83.1872, k+ = 4.85851e-09, epsilon+ = 9.29698e-13, omega+ = 0.00212616
ExecutionTime = 0.198666 s  ClockTime = 1 s

Time = 47s

DICPCG:  Solving for Ux, Initial residual = 0.648749, Final residual = 6.90068e-08, No Iterations 3
DICPCG:  Solving for Uy, Initial residual = 0, Final residual = 0, No Iterations 0
smoothSolver:  Solving for epsilon, Initial residual = 0.374794, Final residual = 3.29625e-10, No Iterations 2
smoothSolver:  Solving for k, Initial residual = 0.17724, Final residual = 5.10205e-10, No Iterations 2
bounding k, min: 2.12623e-16 max: 0.000170924 average: 7.07082e-06
Uncorrected Ubar = 4.12621, pressure gradient = 0.820098
Rey = 16433.6, uTau = 0.020511, nut+ = 0, nuEff+ = 1, y+ = 128.194, u+ = 128.194, k+ = 3.00535e-09, epsilon+ = 2.48988e-13, omega+ = 0.000920536
ExecutionTime = 0.202721 s  ClockTime = 1 s

Time = 48s

DICPCG:  Solving for Ux, Initial residual = 0.699625, Final residual = 7.91631e-08, No Iterations 3
DICPCG:  Solving for Uy, Initial residual = 0, Final residual = 0, No Iterations 0
smoothSolver:  Solving for epsilon, Initial residual = 0.312554, Final residual = 2.54381e-10, No Iterations 2
smoothSolver:  Solving for k, Initial residual = 0.110931, Final residual = 1.71361e-10, No Iterations 2
bounding k, min: 2.12651e-16 max: 0.000164456 average: 7.87905e-06
Uncorrected Ubar = 15.7196, pressure gradient = -0.794784
Rey = 6251.75, uTau = 0.0126509, nut+ = 0, nuEff+ = 1, y+ = 79.068, u+ = 79.068, k+ = 1.23789e-08, epsilon+ = 2.5273e-12, omega+ = 0.00226847
ExecutionTime = 0.211257 s  ClockTime = 1 s

Time = 49s

DICPCG:  Solving for Ux, Initial residual = 0.627771, Final residual = 1.16211e-07, No Iterations 3
DICPCG:  Solving for Uy, Initial residual = 0, Final residual = 0, No Iterations 0
smoothSolver:  Solving for epsilon, Initial residual = 0.368235, Final residual = 4.65369e-10, No Iterations 2
smoothSolver:  Solving for k, Initial residual = 0.185183, Final residual = 9.91441e-10, No Iterations 2
bounding k, min: 2.12969e-16 max: 0.000235996 average: 8.24667e-06
Uncorrected Ubar = 4.45259, pressure gradient = 0.778275
Rey = 15732.2, uTau = 0.0200685, nut+ = 0, nuEff+ = 1, y+ = 125.428, u+ = 125.428, k+ = 5.65775e-09, epsilon+ = 6.25367e-13, omega+ = 0.00122814
ExecutionTime = 0.213719 s  ClockTime = 1 s

Time = 50s

DICPCG:  Solving for Ux, Initial residual = 0.684299, Final residual = 1.41383e-07, No Iterations 3
DICPCG:  Solving for Uy, Initial residual = 0, Final residual = 0, No Iterations 0
smoothSolver:  Solving for epsilon, Initial residual = 0.228402, Final residual = 1.79472e-10, No Iterations 2
smoothSolver:  Solving for k, Initial residual = 0.103921, Final residual = 3.66865e-10, No Iterations 2
bounding k, min: 2.12913e-16 max: 0.000262234 average: 9.55799e-06
Uncorrected Ubar = 15.4114, pressure gradient = -0.75384
Rey = 5633.71, uTau = 0.0120093, nut+ = 0, nuEff+ = 1, y+ = 75.058, u+ = 75.058, k+ = 2.34444e-08, epsilon+ = 5.60884e-12, omega+ = 0.00265822
ExecutionTime = 0.216568 s  ClockTime = 1 s

Time = 51s

DICPCG:  Solving for Ux, Initial residual = 0.604913, Final residual = 2.75202e-07, No Iterations 3
DICPCG:  Solving for Uy, Initial residual = 0, Final residual = 0, No Iterations 0
smoothSolver:  Solving for epsilon, Initial residual = 0.328174, Final residual = 6.5286e-10, No Iterations 2
smoothSolver:  Solving for k, Initial residual = 0.169799, Final residual = 1.66266e-09, No Iterations 2
bounding k, min: 2.13034e-16 max: 0.00036283 average: 1.07256e-05
Uncorrected Ubar = 4.77234, pressure gradient = 0.736855
Rey = 15032.6, uTau = 0.0196172, nut+ = 0, nuEff+ = 1, y+ = 122.608, u+ = 122.608, k+ = 1.11624e-08, epsilon+ = 1.16895e-12, omega+ = 0.00116358
ExecutionTime = 0.218737 s  ClockTime = 1 s

Time = 52s

DICPCG:  Solving for Ux, Initial residual = 0.667566, Final residual = 4.10271e-07, No Iterations 3
DICPCG:  Solving for Uy, Initial residual = 0, Final residual = 0, No Iterations 0
smoothSolver:  Solving for epsilon, Initial residual = 0.136539, Final residual = 3.78414e-11, No Iterations 2
smoothSolver:  Solving for k, Initial residual = 0.106118, Final residual = 1.76356e-09, No Iterations 2
bounding k, min: 2.13137e-16 max: 0.000448465 average: 1.30794e-05
Uncorrected Ubar = 15.0779, pressure gradient = -0.712209
Rey = 4844.72, uTau = 0.0111366, nut+ = 0, nuEff+ = 1, y+ = 69.604, u+ = 69.604, k+ = 5.2053e-08, epsilon+ = 1.42982e-11, omega+ = 0.00305207
ExecutionTime = 0.221105 s  ClockTime = 1 s

Time = 53s

DICPCG:  Solving for Ux, Initial residual = 0.565479, Final residual = 5.74661e-07, No Iterations 3
DICPCG:  Solving for Uy, Initial residual = 0, Final residual = 0, No Iterations 0
smoothSolver:  Solving for epsilon, Initial residual = 0.186283, Final residual = 7.03011e-10, No Iterations 2
smoothSolver:  Solving for k, Initial residual = 0.127652, Final residual = 5.08391e-09, No Iterations 2
bounding k, min: 2.13216e-16 max: 0.000581297 average: 1.58619e-05
Uncorrected Ubar = 5.11082, pressure gradient = 0.694026
Rey = 14344.5, uTau = 0.019163, nut+ = 0, nuEff+ = 1, y+ = 119.768, u+ = 119.768, k+ = 1.99253e-08, epsilon+ = 2.45118e-12, omega+ = 0.00136687
ExecutionTime = 0.229096 s  ClockTime = 1 s

Time = 54s

DICPCG:  Solving for Ux, Initial residual = 0.633584, Final residual = 8.86126e-07, No Iterations 3
DICPCG:  Solving for Uy, Initial residual = 0, Final residual = 0, No Iterations 0
smoothSolver:  Solving for epsilon, Initial residual = 0.134744, Final residual = 1.76251e-10, No Iterations 2
smoothSolver:  Solving for k, Initial residual = 0.0974067, Final residual = 1.03166e-08, No Iterations 2
bounding k, min: 2.1315e-16 max: 0.000719631 average: 1.94502e-05
Uncorrected Ubar = 14.7037, pressure gradient = -0.667957
Rey = 3826.77, uTau = 0.00989775, nut+ = 0, nuEff+ = 1, y+ = 61.8609, u+ = 61.8609, k+ = 1.06473e-07, epsilon+ = 3.90351e-11, omega+ = 0.00407355
ExecutionTime = 0.230743 s  ClockTime = 1 s

Time = 55s

DICPCG:  Solving for Ux, Initial residual = 0.482641, Final residual = 9.21019e-07, No Iterations 3
DICPCG:  Solving for Uy, Initial residual = 0, Final residual = 0, No Iterations 0
smoothSolver:  Solving for epsilon, Initial residual = 0.107363, Final residual = 1.21734e-10, No Iterations 2
smoothSolver:  Solving for k, Initial residual = 0.082194, Final residual = 2.98088e-08, No Iterations 2
bounding k, min: 2.13281e-16 max: 0.000882809 average: 2.34364e-05
Uncorrected Ubar = 5.48614, pressure gradient = 0.647885
Rey = 13627.7, uTau = 0.018678, nut+ = 0, nuEff+ = 1, y+ = 116.738, u+ = 116.738, k+ = 3.34286e-08, epsilon+ = 4.38791e-12, omega+ = 0.00145847
ExecutionTime = 0.23731 s  ClockTime = 1 s

Time = 56s

DICPCG:  Solving for Ux, Initial residual = 0.565676, Final residual = 1.14795e-08, No Iterations 4
DICPCG:  Solving for Uy, Initial residual = 0, Final residual = 0, No Iterations 0
smoothSolver:  Solving for epsilon, Initial residual = 0.170681, Final residual = 6.36457e-09, No Iterations 2
smoothSolver:  Solving for k, Initial residual = 0.0693032, Final residual = 7.49858e-08, No Iterations 2
bounding k, min: 2.13129e-16 max: 0.00104453 average: 2.78333e-05
Uncorrected Ubar = 14.3147, pressure gradient = -0.620578
Rey = 2795.66, uTau = 0.00845984, nut+ = 0, nuEff+ = 1, y+ = 52.874, u+ = 52.874, k+ = 2.28125e-07, epsilon+ = 1.16574e-10, omega+ = 0.00567788
ExecutionTime = 0.2443 s  ClockTime = 1 s

Time = 57s

DICPCG:  Solving for Ux, Initial residual = 0.350671, Final residual = 9.87931e-07, No Iterations 3
DICPCG:  Solving for Uy, Initial residual = 0, Final residual = 0, No Iterations 0
smoothSolver:  Solving for epsilon, Initial residual = 0.178378, Final residual = 2.72557e-08, No Iterations 2
smoothSolver:  Solving for k, Initial residual = 0.0498586, Final residual = 2.32657e-07, No Iterations 2
bounding k, min: 2.13095e-16 max: 0.00120493 average: 3.19921e-05
Uncorrected Ubar = 5.87007, pressure gradient = 0.599313
Rey = 12933.5, uTau = 0.0181961, nut+ = 0, nuEff+ = 1, y+ = 113.726, u+ = 113.726, k+ = 5.31842e-08, epsilon+ = 7.62522e-12, omega+ = 0.00159304
ExecutionTime = 0.250093 s  ClockTime = 1 s

Time = 58s

DICPCG:  Solving for Ux, Initial residual = 0.447731, Final residual = 1.44903e-08, No Iterations 4
DICPCG:  Solving for Uy, Initial residual = 0, Final residual = 0, No Iterations 0
smoothSolver:  Solving for epsilon, Initial residual = 0.286985, Final residual = 1.29522e-07, No Iterations 2
smoothSolver:  Solving for k, Initial residual = 0.0526916, Final residual = 4.65825e-07, No Iterations 2
bounding k, min: 2.1284e-16 max: 0.00131491 average: 3.54971e-05
Uncorrected Ubar = 13.9344, pressure gradient = -0.57202
Rey = 1843.49, uTau = 0.00686974, nut+ = 0, nuEff+ = 1, y+ = 42.9359, u+ = 42.9359, k+ = 5.11441e-07, epsilon+ = 4.04807e-10, omega+ = 0.00879447
ExecutionTime = 0.259209 s  ClockTime = 1 s

Time = 59s

DICPCG:  Solving for Ux, Initial residual = 0.213298, Final residual = 7.55282e-07, No Iterations 3
DICPCG:  Solving for Uy, Initial residual = 0, Final residual = 0, No Iterations 0
smoothSolver:  Solving for epsilon, Initial residual = 0.288313, Final residual = 3.28404e-07, No Iterations 2
smoothSolver:  Solving for k, Initial residual = 0.0384914, Final residual = 5.23613e-07, No Iterations 2
bounding k, min: 2.12562e-16 max: 0.00135459 average: 3.69016e-05
Uncorrected Ubar = 6.23642, pressure gradient = 0.551097
Rey = 12327.1, uTau = 0.0177644, nut+ = 0, nuEff+ = 1, y+ = 111.028, u+ = 111.028, k+ = 8.29369e-08, epsilon+ = 1.24092e-11, omega+ = 0.00166247
ExecutionTime = 0.266391 s  ClockTime = 1 s

Time = 60s

DICPCG:  Solving for Ux, Initial residual = 0.311147, Final residual = 1.49464e-08, No Iterations 4
DICPCG:  Solving for Uy, Initial residual = 0, Final residual = 0, No Iterations 0
smoothSolver:  Solving for epsilon, Initial residual = 0.427979, Final residual = 6.93221e-07, No Iterations 2
smoothSolver:  Solving for k, Initial residual = 0.0750473, Final residual = 6.88914e-08, No Iterations 3
bounding k, min: 2.11294e-16 max: 0.00124406 average: 3.53775e-05
Uncorrected Ubar = 13.5788, pressure gradient = -0.524986
Rey = 972.605, uTau = 0.00498986, nut+ = 0, nuEff+ = 1, y+ = 31.1866, u+ = 31.1866, k+ = 1.43733e-06, epsilon+ = 2.16156e-09, omega+ = 0.0167096
ExecutionTime = 0.27194 s  ClockTime = 1 s

Time = 61s

DICPCG:  Solving for Ux, Initial residual = 0.14101, Final residual = 5.70531e-07, No Iterations 3
DICPCG:  Solving for Uy, Initial residual = 0, Final residual = 0, No Iterations 0
smoothSolver:  Solving for epsilon, Initial residual = 0.325799, Final residual = 8.44565e-07, No Iterations 2
smoothSolver:  Solving for k, Initial residual = 0.0692412, Final residual = 3.75695e-07, No Iterations 3
bounding k, min: 2.10662e-16 max: 0.00104599 average: 3.08614e-05
Uncorrected Ubar = 6.57309, pressure gradient = 0.505715
Rey = 11810.6, uTau = 0.0173882, nut+ = 0, nuEff+ = 1, y+ = 108.676, u+ = 108.676, k+ = 1.29502e-07, epsilon+ = 2.00439e-11, omega+ = 0.00171975
ExecutionTime = 0.274206 s  ClockTime = 1 s

Time = 62s

DICPCG:  Solving for Ux, Initial residual = 0.251419, Final residual = 1.44078e-08, No Iterations 4
DICPCG:  Solving for Uy, Initial residual = 0, Final residual = 0, No Iterations 0
smoothSolver:  Solving for epsilon, Initial residual = 0.418352, Final residual = 8.11282e-07, No Iterations 2
smoothSolver:  Solving for k, Initial residual = 0.112417, Final residual = 5.67409e-07, No Iterations 3
bounding k, min: 2.09974e-16 max: 0.000804688 average: 2.64901e-05
Uncorrected Ubar = 13.2568, pressure gradient = -0.481548
Rey = 205.689, uTau = 0.0022947, nut+ = 0, nuEff+ = 1, y+ = 14.3419, u+ = 14.3419, k+ = 1.01557e-05, epsilon+ = 7.23028e-08, omega+ = 0.0791045
ExecutionTime = 0.284485 s  ClockTime = 1 s

Time = 63s

DICPCG:  Solving for Ux, Initial residual = 0.144795, Final residual = 5.99234e-07, No Iterations 3
DICPCG:  Solving for Uy, Initial residual = 0, Final residual = 0, No Iterations 0
smoothSolver:  Solving for epsilon, Initial residual = 0.318175, Final residual = 2.74277e-07, No Iterations 2
smoothSolver:  Solving for k, Initial residual = 0.0982096, Final residual = 3.44206e-07, No Iterations 3
bounding k, min: 2.0929e-16 max: 0.000665515 average: 2.30162e-05
Uncorrected Ubar = 6.87806, pressure gradient = 0.46463
Rey = 11334.4, uTau = 0.0170341, nut+ = 0, nuEff+ = 1, y+ = 106.463, u+ = 106.463, k+ = 2.04858e-07, epsilon+ = 3.25205e-11, omega+ = 0.00176385
ExecutionTime = 0.288191 s  ClockTime = 1 s

Time = 64s

DICPCG:  Solving for Ux, Initial residual = 0.260163, Final residual = 1.49486e-08, No Iterations 4
DICPCG:  Solving for Uy, Initial residual = 0, Final residual = 0, No Iterations 0
smoothSolver:  Solving for epsilon, Initial residual = 0.394333, Final residual = 1.84464e-07, No Iterations 2
smoothSolver:  Solving for k, Initial residual = 0.122058, Final residual = 1.56829e-07, No Iterations 3
bounding k, min: 2.08558e-16 max: 0.000556864 average: 2.22136e-05
Uncorrected Ubar = 12.9704, pressure gradient = -0.442371
Rey = 444.978, uTau = 0.00337512, nut+ = 0, nuEff+ = 1, y+ = 21.0945, u+ = 21.0945, k+ = 7.13988e-06, epsilon+ = 2.34533e-08, omega+ = 0.0364981
ExecutionTime = 0.292962 s  ClockTime = 1 s

Time = 65s

DICPCG:  Solving for Ux, Initial residual = 0.162594, Final residual = 6.56863e-07, No Iterations 3
DICPCG:  Solving for Uy, Initial residual = 0, Final residual = 0, No Iterations 0
smoothSolver:  Solving for epsilon, Initial residual = 0.270055, Final residual = 1.53247e-08, No Iterations 2
smoothSolver:  Solving for k, Initial residual = 0.0796487, Final residual = 3.56164e-07, No Iterations 2
bounding k, min: 2.08643e-16 max: 0.000562997 average: 2.20816e-05
Uncorrected Ubar = 7.15296, pressure gradient = 0.427854
Rey = 10858, uTau = 0.0166723, nut+ = 0, nuEff+ = 1, y+ = 104.202, u+ = 104.202, k+ = 3.27441e-07, epsilon+ = 5.38962e-11, omega+ = 0.00182887
ExecutionTime = 0.298093 s  ClockTime = 1 s

Time = 66s

DICPCG:  Solving for Ux, Initial residual = 0.245785, Final residual = 9.6116e-07, No Iterations 3
DICPCG:  Solving for Uy, Initial residual = 0, Final residual = 0, No Iterations 0
smoothSolver:  Solving for epsilon, Initial residual = 0.334451, Final residual = 7.81012e-08, No Iterations 2
smoothSolver:  Solving for k, Initial residual = 0.112608, Final residual = 2.93183e-08, No Iterations 3
bounding k, min: 2.07031e-16 max: 0.000533265 average: 2.40325e-05
Uncorrected Ubar = 12.7096, pressure gradient = -0.407077
Rey = 1001.3, uTau = 0.00506293, nut+ = 0, nuEff+ = 1, y+ = 31.6433, u+ = 31.6433, k+ = 4.85461e-06, epsilon+ = 7.09229e-09, omega+ = 0.0162326
ExecutionTime = 0.299754 s  ClockTime = 1 s

Time = 67s

DICPCG:  Solving for Ux, Initial residual = 0.151962, Final residual = 6.32361e-07, No Iterations 3
DICPCG:  Solving for Uy, Initial residual = 0, Final residual = 0, No Iterations 0
smoothSolver:  Solving for epsilon, Initial residual = 0.29619, Final residual = 1.24664e-07, No Iterations 2
smoothSolver:  Solving for k, Initial residual = 0.0868705, Final residual = 4.09025e-08, No Iterations 3
bounding k, min: 2.06265e-16 max: 0.000577983 average: 2.52697e-05
Uncorrected Ubar = 7.40856, pressure gradient = 0.394063
Rey = 10361.4, uTau = 0.0162866, nut+ = 0, nuEff+ = 1, y+ = 101.791, u+ = 101.791, k+ = 5.34722e-07, epsilon+ = 9.05549e-11, omega+ = 0.00188166
ExecutionTime = 0.302227 s  ClockTime = 1 s

Time = 68s

DICPCG:  Solving for Ux, Initial residual = 0.222244, Final residual = 8.98487e-07, No Iterations 3
DICPCG:  Solving for Uy, Initial residual = 0, Final residual = 0, No Iterations 0
smoothSolver:  Solving for epsilon, Initial residual = 0.344205, Final residual = 8.85671e-08, No Iterations 2
smoothSolver:  Solving for k, Initial residual = 0.109545, Final residual = 2.62878e-08, No Iterations 3
bounding k, min: 2.05469e-16 max: 0.000544809 average: 2.80499e-05
Uncorrected Ubar = 12.4656, pressure gradient = -0.374088
Rey = 1507.98, uTau = 0.00621323, nut+ = 0, nuEff+ = 1, y+ = 38.8327, u+ = 38.8327, k+ = 5.03672e-06, epsilon+ = 4.8729e-09, omega+ = 0.0107497
ExecutionTime = 0.304385 s  ClockTime = 1 s

Time = 69s

DICPCG:  Solving for Ux, Initial residual = 0.140774, Final residual = 6.12008e-07, No Iterations 3
DICPCG:  Solving for Uy, Initial residual = 0, Final residual = 0, No Iterations 0
smoothSolver:  Solving for epsilon, Initial residual = 0.271836, Final residual = 1.43436e-07, No Iterations 2
smoothSolver:  Solving for k, Initial residual = 0.0594044, Final residual = 4.71646e-08, No Iterations 3
bounding k, min: 2.0466e-16 max: 0.00061 average: 3.02372e-05
Uncorrected Ubar = 7.64541, pressure gradient = 0.362343
Rey = 9895.58, uTau = 0.0159162, nut+ = 0, nuEff+ = 1, y+ = 99.4765, u+ = 99.4765, k+ = 8.84362e-07, epsilon+ = 1.55128e-10, omega+ = 0.00194902
ExecutionTime = 0.306292 s  ClockTime = 1 s

Time = 70s

DICPCG:  Solving for Ux, Initial residual = 0.19027, Final residual = 7.6628e-07, No Iterations 3
DICPCG:  Solving for Uy, Initial residual = 0, Final residual = 0, No Iterations 0
smoothSolver:  Solving for epsilon, Initial residual = 0.287537, Final residual = 1.36696e-07, No Iterations 2
smoothSolver:  Solving for k, Initial residual = 0.0867158, Final residual = 2.67127e-08, No Iterations 3
bounding k, min: 2.03808e-16 max: 0.000652663 average: 3.423e-05
Uncorrected Ubar = 12.2376, pressure gradient = -0.343025
Rey = 1967.68, uTau = 0.00709736, nut+ = 0, nuEff+ = 1, y+ = 44.3585, u+ = 44.3585, k+ = 6.09708e-06, epsilon+ = 4.52057e-09, omega+ = 0.00823813
ExecutionTime = 0.308594 s  ClockTime = 1 s

Time = 71s

DICPCG:  Solving for Ux, Initial residual = 0.121053, Final residual = 5.33847e-07, No Iterations 3
DICPCG:  Solving for Uy, Initial residual = 0, Final residual = 0, No Iterations 0
smoothSolver:  Solving for epsilon, Initial residual = 0.284495, Final residual = 2.9283e-07, No Iterations 2
smoothSolver:  Solving for k, Initial residual = 0.0583781, Final residual = 4.00184e-08, No Iterations 3
bounding k, min: 2.02978e-16 max: 0.000698135 average: 3.73957e-05
Uncorrected Ubar = 7.86864, pressure gradient = 0.332041
Rey = 9453.02, uTau = 0.0155563, nut+ = 0, nuEff+ = 1, y+ = 97.2266, u+ = 97.2266, k+ = 1.49205e-06, epsilon+ = 2.68513e-10, omega+ = 0.00199959
ExecutionTime = 0.31063 s  ClockTime = 1 s

Time = 72s

DICPCG:  Solving for Ux, Initial residual = 0.16229, Final residual = 6.75361e-07, No Iterations 3
DICPCG:  Solving for Uy, Initial residual = 0, Final residual = 0, No Iterations 0
smoothSolver:  Solving for epsilon, Initial residual = 0.339946, Final residual = 1.45922e-07, No Iterations 2
smoothSolver:  Solving for k, Initial residual = 0.0744144, Final residual = 2.36744e-08, No Iterations 3
bounding k, min: 2.02172e-16 max: 0.000883059 average: 4.22107e-05
Uncorrected Ubar = 12.0269, pressure gradient = -0.313394
Rey = 2375.4, uTau = 0.00779809, nut+ = 0, nuEff+ = 1, y+ = 48.7381, u+ = 48.7381, k+ = 8.1589e-06, epsilon+ = 4.9993e-09, omega+ = 0.00680825
ExecutionTime = 0.312187 s  ClockTime = 1 s

Time = 73s

DICPCG:  Solving for Ux, Initial residual = 0.101152, Final residual = 4.72157e-07, No Iterations 3
DICPCG:  Solving for Uy, Initial residual = 0, Final residual = 0, No Iterations 0
smoothSolver:  Solving for epsilon, Initial residual = 0.20853, Final residual = 4.52799e-07, No Iterations 2
smoothSolver:  Solving for k, Initial residual = 0.0503563, Final residual = 3.48449e-08, No Iterations 3
bounding k, min: 2.01375e-16 max: 0.000915222 average: 4.67344e-05
Uncorrected Ubar = 8.0698, pressure gradient = 0.303357
Rey = 9078.38, uTau = 0.0152449, nut+ = 0, nuEff+ = 1, y+ = 95.2805, u+ = 95.2805, k+ = 2.53736e-06, epsilon+ = 4.70307e-10, omega+ = 0.00205948
ExecutionTime = 0.313921 s  ClockTime = 1 s

Time = 74s

DICPCG:  Solving for Ux, Initial residual = 0.129043, Final residual = 5.88322e-07, No Iterations 3
DICPCG:  Solving for Uy, Initial residual = 0, Final residual = 0, No Iterations 0
smoothSolver:  Solving for epsilon, Initial residual = 0.28687, Final residual = 1.10097e-07, No Iterations 2
smoothSolver:  Solving for k, Initial residual = 0.0675234, Final residual = 1.83177e-08, No Iterations 3
bounding k, min: 2.00549e-16 max: 0.00106839 average: 5.25603e-05
Uncorrected Ubar = 11.8354, pressure gradient = -0.285846
Rey = 2730.13, uTau = 0.0083601, nut+ = 0, nuEff+ = 1, y+ = 52.2506, u+ = 52.2506, k+ = 1.15907e-05, epsilon+ = 6.18093e-09, omega+ = 0.00592516
ExecutionTime = 0.322203 s  ClockTime = 1 s

Time = 75s

DICPCG:  Solving for Ux, Initial residual = 0.0760694, Final residual = 3.82099e-07, No Iterations 3
DICPCG:  Solving for Uy, Initial residual = 0, Final residual = 0, No Iterations 0
smoothSolver:  Solving for epsilon, Initial residual = 0.272329, Final residual = 8.32449e-07, No Iterations 2
smoothSolver:  Solving for k, Initial residual = 0.077044, Final residual = 4.24069e-08, No Iterations 3
bounding k, min: 1.99703e-16 max: 0.00102549 average: 5.76715e-05
Uncorrected Ubar = 8.25208, pressure gradient = 0.276377
Rey = 8756.67, uTau = 0.0149723, nut+ = 0, nuEff+ = 1, y+ = 93.5771, u+ = 93.5771, k+ = 4.38154e-06, epsilon+ = 8.25366e-10, omega+ = 0.00209304
ExecutionTime = 0.328943 s  ClockTime = 1 s

Time = 76s

DICPCG:  Solving for Ux, Initial residual = 0.100471, Final residual = 4.99769e-07, No Iterations 3
DICPCG:  Solving for Uy, Initial residual = 0, Final residual = 0, No Iterations 0
smoothSolver:  Solving for epsilon, Initial residual = 0.272973, Final residual = 7.805e-08, No Iterations 2
smoothSolver:  Solving for k, Initial residual = 0.0713262, Final residual = 2.88186e-08, No Iterations 3
bounding k, min: 1.98824e-16 max: 0.00108155 average: 6.31906e-05
Uncorrected Ubar = 11.6627, pressure gradient = -0.260165
Rey = 3053.16, uTau = 0.00884086, nut+ = 0, nuEff+ = 1, y+ = 55.2554, u+ = 55.2554, k+ = 1.72869e-05, epsilon+ = 8.23184e-09, omega+ = 0.00529098
ExecutionTime = 0.330097 s  ClockTime = 1 s

Time = 77s

DICPCG:  Solving for Ux, Initial residual = 0.0602041, Final residual = 3.20016e-07, No Iterations 3
DICPCG:  Solving for Uy, Initial residual = 0, Final residual = 0, No Iterations 0
smoothSolver:  Solving for epsilon, Initial residual = 0.2239, Final residual = 8.15911e-07, No Iterations 2
smoothSolver:  Solving for k, Initial residual = 0.0903405, Final residual = 1.2645e-07, No Iterations 3
bounding k, min: 1.97997e-16 max: 0.000994115 average: 7.08636e-05
Uncorrected Ubar = 8.4156, pressure gradient = 0.251716
Rey = 8491.16, uTau = 0.0147436, nut+ = 0, nuEff+ = 1, y+ = 92.1475, u+ = 92.1475, k+ = 7.62206e-06, epsilon+ = 1.46408e-09, omega+ = 0.00213427
ExecutionTime = 0.332414 s  ClockTime = 1 s

Time = 78s

DICPCG:  Solving for Ux, Initial residual = 0.0818389, Final residual = 4.04613e-07, No Iterations 3
DICPCG:  Solving for Uy, Initial residual = 0, Final residual = 0, No Iterations 0
smoothSolver:  Solving for epsilon, Initial residual = 0.195072, Final residual = 3.72243e-07, No Iterations 2
smoothSolver:  Solving for k, Initial residual = 0.0790887, Final residual = 4.49509e-08, No Iterations 3
bounding k, min: 1.97342e-16 max: 0.00105379 average: 8.09873e-05
Uncorrected Ubar = 11.5038, pressure gradient = -0.236801
Rey = 3369.69, uTau = 0.00928785, nut+ = 0, nuEff+ = 1, y+ = 58.0491, u+ = 58.0491, k+ = 2.64044e-05, epsilon+ = 1.13996e-08, omega+ = 0.00479699
ExecutionTime = 0.334108 s  ClockTime = 1 s

Time = 79s

DICPCG:  Solving for Ux, Initial residual = 0.0523639, Final residual = 2.67212e-07, No Iterations 3
DICPCG:  Solving for Uy, Initial residual = 0, Final residual = 0, No Iterations 0
smoothSolver:  Solving for epsilon, Initial residual = 0.208084, Final residual = 5.31762e-07, No Iterations 2
smoothSolver:  Solving for k, Initial residual = 0.094991, Final residual = 3.14025e-08, No Iterations 3
bounding k, min: 1.96781e-16 max: 0.00128721 average: 9.54939e-05
Uncorrected Ubar = 8.5666, pressure gradient = 0.228969
Rey = 8273.17, uTau = 0.0145531, nut+ = 0, nuEff+ = 1, y+ = 90.957, u+ = 90.957, k+ = 1.34565e-05, epsilon+ = 2.59988e-09, omega+ = 0.00214674
ExecutionTime = 0.343112 s  ClockTime = 1 s

Time = 80s

DICPCG:  Solving for Ux, Initial residual = 0.0675675, Final residual = 2.86677e-07, No Iterations 3
DICPCG:  Solving for Uy, Initial residual = 0, Final residual = 0, No Iterations 0
smoothSolver:  Solving for epsilon, Initial residual = 0.182832, Final residual = 5.41459e-07, No Iterations 2
smoothSolver:  Solving for k, Initial residual = 0.0769212, Final residual = 5.77423e-08, No Iterations 3
bounding k, min: 1.96264e-16 max: 0.00135725 average: 0.000114048
Uncorrected Ubar = 11.3602, pressure gradient = -0.215338
Rey = 3684.72, uTau = 0.00971231, nut+ = 0, nuEff+ = 1, y+ = 60.7019, u+ = 60.7019, k+ = 4.15328e-05, epsilon+ = 1.63992e-08, omega+ = 0.00438722
ExecutionTime = 0.346267 s  ClockTime = 1 s

Time = 81s

DICPCG:  Solving for Ux, Initial residual = 0.0428466, Final residual = 2.0086e-07, No Iterations 3
DICPCG:  Solving for Uy, Initial residual = 0, Final residual = 0, No Iterations 0
smoothSolver:  Solving for epsilon, Initial residual = 0.152969, Final residual = 5.61141e-07, No Iterations 2
smoothSolver:  Solving for k, Initial residual = 0.0852469, Final residual = 5.37575e-08, No Iterations 3
bounding k, min: 1.95779e-16 max: 0.00168869 average: 0.000138783
Uncorrected Ubar = 8.70552, pressure gradient = 0.208685
Rey = 8103.09, uTau = 0.0144027, nut+ = 0, nuEff+ = 1, y+ = 90.0171, u+ = 90.0171, k+ = 2.39844e-05, epsilon+ = 4.6615e-09, omega+ = 0.0021595
ExecutionTime = 0.348552 s  ClockTime = 1 s

Time = 82s

DICPCG:  Solving for Ux, Initial residual = 0.0518857, Final residual = 1.80322e-07, No Iterations 3
DICPCG:  Solving for Uy, Initial residual = 0, Final residual = 0, No Iterations 0
smoothSolver:  Solving for epsilon, Initial residual = 0.157315, Final residual = 8.51545e-07, No Iterations 2
smoothSolver:  Solving for k, Initial residual = 0.0740618, Final residual = 6.41292e-08, No Iterations 3
bounding k, min: 1.95317e-16 max: 0.00215502 average: 0.000168757
Uncorrected Ubar = 11.2217, pressure gradient = -0.195696
Rey = 4059.71, uTau = 0.0101945, nut+ = 0, nuEff+ = 1, y+ = 63.7159, u+ = 63.7159, k+ = 6.57081e-05, epsilon+ = 2.3584e-08, omega+ = 0.00398801
ExecutionTime = 0.360354 s  ClockTime = 1 s

Time = 83s

DICPCG:  Solving for Ux, Initial residual = 0.0327887, Final residual = 1.18e-07, No Iterations 3
DICPCG:  Solving for Uy, Initial residual = 0, Final residual = 0, No Iterations 0
smoothSolver:  Solving for epsilon, Initial residual = 0.148791, Final residual = 6.91886e-07, No Iterations 2
smoothSolver:  Solving for k, Initial residual = 0.0754268, Final residual = 8.89126e-08, No Iterations 3
bounding k, min: 1.94886e-16 max: 0.00267325 average: 0.000203094
Uncorrected Ubar = 8.83747, pressure gradient = 0.189508
Rey = 8013.79, uTau = 0.0143232, nut+ = 0, nuEff+ = 1, y+ = 89.5198, u+ = 89.5198, k+ = 4.31978e-05, epsilon+ = 8.30746e-09, omega+ = 0.0021368
ExecutionTime = 0.363216 s  ClockTime = 1 s

Time = 84s

DICPCG:  Solving for Ux, Initial residual = 0.0371312, Final residual = 9.4593e-08, No Iterations 3
DICPCG:  Solving for Uy, Initial residual = 0, Final residual = 0, No Iterations 0
smoothSolver:  Solving for epsilon, Initial residual = 0.152513, Final residual = 1.24057e-08, No Iterations 3
smoothSolver:  Solving for k, Initial residual = 0.0624438, Final residual = 1.45954e-07, No Iterations 3
bounding k, min: 1.94356e-16 max: 0.00325343 average: 0.000244071
Uncorrected Ubar = 11.0934, pressure gradient = -0.177343
Rey = 4481.48, uTau = 0.010711, nut+ = 0, nuEff+ = 1, y+ = 66.9439, u+ = 66.9439, k+ = 0.000105751, epsilon+ = 3.44736e-08, omega+ = 0.00362209
ExecutionTime = 0.365496 s  ClockTime = 1 s

Time = 85s

DICPCG:  Solving for Ux, Initial residual = 0.0226213, Final residual = 6.1805e-08, No Iterations 3
DICPCG:  Solving for Uy, Initial residual = 0, Final residual = 0, No Iterations 0
smoothSolver:  Solving for epsilon, Initial residual = 0.139697, Final residual = 1.30129e-08, No Iterations 3
smoothSolver:  Solving for k, Initial residual = 0.0613226, Final residual = 3.77395e-07, No Iterations 3
bounding k, min: 1.9394e-16 max: 0.00381439 average: 0.000288199
Uncorrected Ubar = 8.96327, pressure gradient = 0.172063
Rey = 8007.91, uTau = 0.0143179, nut+ = 0, nuEff+ = 1, y+ = 89.4869, u+ = 89.4869, k+ = 7.83713e-05, epsilon+ = 1.47808e-08, omega+ = 0.00209555
ExecutionTime = 0.367847 s  ClockTime = 1 s

Time = 86s

DICPCG:  Solving for Ux, Initial residual = 0.0238522, Final residual = 5.45179e-08, No Iterations 3
DICPCG:  Solving for Uy, Initial residual = 0, Final residual = 0, No Iterations 0
smoothSolver:  Solving for epsilon, Initial residual = 0.160734, Final residual = 3.93323e-08, No Iterations 3
smoothSolver:  Solving for k, Initial residual = 0.0525113, Final residual = 8.96615e-07, No Iterations 3
bounding k, min: 1.93675e-16 max: 0.00426655 average: 0.000337983
Uncorrected Ubar = 10.9704, pressure gradient = -0.160419
Rey = 4996.66, uTau = 0.0113099, nut+ = 0, nuEff+ = 1, y+ = 70.687, u+ = 70.687, k+ = 0.000171207, epsilon+ = 5.02745e-08, omega+ = 0.00326275
ExecutionTime = 0.370532 s  ClockTime = 1 s

Time = 87s

DICPCG:  Solving for Ux, Initial residual = 0.014301, Final residual = 2.55403e-08, No Iterations 3
DICPCG:  Solving for Uy, Initial residual = 0, Final residual = 0, No Iterations 0
smoothSolver:  Solving for epsilon, Initial residual = 0.149691, Final residual = 7.32449e-08, No Iterations 3
smoothSolver:  Solving for k, Initial residual = 0.046626, Final residual = 1.54724e-07, No Iterations 4
bounding k, min: 1.94249e-16 max: 0.00458076 average: 0.000385867
Uncorrected Ubar = 9.08156, pressure gradient = 0.155965
Rey = 8137.49, uTau = 0.0144333, nut+ = 0, nuEff+ = 1, y+ = 90.208, u+ = 90.208, k+ = 0.00014218, epsilon+ = 2.58374e-08, omega+ = 0.00201915
ExecutionTime = 0.375821 s  ClockTime = 1 s

Time = 88s

DICPCG:  Solving for Ux, Initial residual = 0.0141249, Final residual = 2.47534e-08, No Iterations 3
DICPCG:  Solving for Uy, Initial residual = 0, Final residual = 0, No Iterations 0
smoothSolver:  Solving for epsilon, Initial residual = 0.158124, Final residual = 2.97864e-07, No Iterations 3
smoothSolver:  Solving for k, Initial residual = 0.0414961, Final residual = 4.41761e-07, No Iterations 4
bounding k, min: 1.95543e-16 max: 0.00468776 average: 0.000436646
Uncorrected Ubar = 10.8611, pressure gradient = -0.145463
Rey = 5595.11, uTau = 0.0119681, nut+ = 0, nuEff+ = 1, y+ = 74.8004, u+ = 74.8004, k+ = 0.000280218, epsilon+ = 7.39165e-08, omega+ = 0.00293092
ExecutionTime = 0.384637 s  ClockTime = 1 s

Time = 89s

DICPCG:  Solving for Ux, Initial residual = 0.00859401, Final residual = 2.32905e-08, No Iterations 3
DICPCG:  Solving for Uy, Initial residual = 0, Final residual = 0, No Iterations 0
smoothSolver:  Solving for epsilon, Initial residual = 0.134505, Final residual = 6.66421e-07, No Iterations 3
smoothSolver:  Solving for k, Initial residual = 0.0367555, Final residual = 1.57571e-07, No Iterations 5
bounding k, min: 1.97406e-16 max: 0.00474866 average: 0.000484616
Uncorrected Ubar = 9.18488, pressure gradient = 0.14191
Rey = 8429.08, uTau = 0.0146896, nut+ = 0, nuEff+ = 1, y+ = 91.81, u+ = 91.81, k+ = 0.000255601, epsilon+ = 4.4134e-08, omega+ = 0.00191853
ExecutionTime = 0.393014 s  ClockTime = 1 s

Time = 90s

DICPCG:  Solving for Ux, Initial residual = 0.00824354, Final residual = 2.09174e-08, No Iterations 3
DICPCG:  Solving for Uy, Initial residual = 0, Final residual = 0, No Iterations 0
smoothSolver:  Solving for epsilon, Initial residual = 0.150858, Final residual = 1.39154e-07, No Iterations 4
smoothSolver:  Solving for k, Initial residual = 0.0367304, Final residual = 2.91551e-07, No Iterations 5
bounding k, min: 1.99814e-16 max: 0.00471323 average: 0.000531927
Uncorrected Ubar = 10.7652, pressure gradient = -0.13202
Rey = 6300.54, uTau = 0.0127002, nut+ = 0, nuEff+ = 1, y+ = 79.3759, u+ = 79.3759, k+ = 0.000461372, epsilon+ = 1.08547e-07, omega+ = 0.0026141
ExecutionTime = 0.399973 s  ClockTime = 1 s

Time = 91s

DICPCG:  Solving for Ux, Initial residual = 0.00539676, Final residual = 1.22864e-08, No Iterations 3
DICPCG:  Solving for Uy, Initial residual = 0, Final residual = 0, No Iterations 0
smoothSolver:  Solving for epsilon, Initial residual = 0.135697, Final residual = 3.25658e-07, No Iterations 4
smoothSolver:  Solving for k, Initial residual = 0.0262424, Final residual = 5.36487e-07, No Iterations 5
bounding k, min: 2.02813e-16 max: 0.00480625 average: 0.000575858
Uncorrected Ubar = 9.27214, pressure gradient = 0.129874
Rey = 8893.94, uTau = 0.0150892, nut+ = 0, nuEff+ = 1, y+ = 94.3077, u+ = 94.3077, k+ = 0.00045328, epsilon+ = 7.34971e-08, omega+ = 0.00180161
ExecutionTime = 0.401395 s  ClockTime = 1 s

Time = 92s

DICPCG:  Solving for Ux, Initial residual = 0.00492784, Final residual = 1.55126e-08, No Iterations 3
DICPCG:  Solving for Uy, Initial residual = 0, Final residual = 0, No Iterations 0
smoothSolver:  Solving for epsilon, Initial residual = 0.13974, Final residual = 7.55207e-07, No Iterations 4
smoothSolver:  Solving for k, Initial residual = 0.0340979, Final residual = 5.22839e-07, No Iterations 5
bounding k, min: 2.06441e-16 max: 0.00480931 average: 0.000616602
Uncorrected Ubar = 10.6809, pressure gradient = -0.118857
Rey = 7110.03, uTau = 0.0134914, nut+ = 0, nuEff+ = 1, y+ = 84.321, u+ = 84.321, k+ = 0.000768434, epsilon+ = 1.59496e-07, omega+ = 0.00230621
ExecutionTime = 0.402458 s  ClockTime = 1 s

Time = 93s

DICPCG:  Solving for Ux, Initial residual = 0.00358448, Final residual = 9.86541e-09, No Iterations 3
DICPCG:  Solving for Uy, Initial residual = 0, Final residual = 0, No Iterations 0
smoothSolver:  Solving for epsilon, Initial residual = 0.159877, Final residual = 1.37708e-07, No Iterations 5
smoothSolver:  Solving for k, Initial residual = 0.0225563, Final residual = 2.94686e-07, No Iterations 5
bounding k, min: 2.10766e-16 max: 0.00474773 average: 0.000648829
Uncorrected Ubar = 9.35244, pressure gradient = 0.118806
Rey = 9549.71, uTau = 0.0156356, nut+ = 0, nuEff+ = 1, y+ = 97.7226, u+ = 97.7226, k+ = 0.000801815, epsilon+ = 1.1982e-07, omega+ = 0.00166039
ExecutionTime = 0.404114 s  ClockTime = 1 s

Time = 94s

DICPCG:  Solving for Ux, Initial residual = 0.00348107, Final residual = 9.28894e-07, No Iterations 2
DICPCG:  Solving for Uy, Initial residual = 0, Final residual = 0, No Iterations 0
smoothSolver:  Solving for epsilon, Initial residual = 0.0953335, Final residual = 1.93357e-07, No Iterations 5
smoothSolver:  Solving for k, Initial residual = 0.0313947, Final residual = 1.73026e-07, No Iterations 5
bounding k, min: 2.15865e-16 max: 0.00467551 average: 0.000681204
Uncorrected Ubar = 10.6073, pressure gradient = -0.107116
Rey = 8081.28, uTau = 0.0143834, nut+ = 0, nuEff+ = 1, y+ = 89.896, u+ = 89.896, k+ = 0.00131102, epsilon+ = 2.34495e-07, omega+ = 0.00198738
ExecutionTime = 0.406715 s  ClockTime = 1 s

Time = 95s

DICPCG:  Solving for Ux, Initial residual = 0.0025108, Final residual = 5.72168e-07, No Iterations 2
DICPCG:  Solving for Uy, Initial residual = 0, Final residual = 0, No Iterations 0
smoothSolver:  Solving for epsilon, Initial residual = 0.20696, Final residual = 2.39194e-07, No Iterations 5
smoothSolver:  Solving for k, Initial residual = 0.0278089, Final residual = 2.48701e-07, No Iterations 6
bounding k, min: 2.21838e-16 max: 0.00458632 average: 0.000698293
Uncorrected Ubar = 9.42637, pressure gradient = 0.108098
Rey = 10617.6, uTau = 0.0164867, nut+ = 0, nuEff+ = 1, y+ = 103.042, u+ = 103.042, k+ = 0.00143489, epsilon+ = 1.87959e-07, omega+ = 0.00145547
ExecutionTime = 0.410543 s  ClockTime = 1 s

Time = 96s

DICPCG:  Solving for Ux, Initial residual = 0.00281642, Final residual = 6.57314e-07, No Iterations 2
DICPCG:  Solving for Uy, Initial residual = 0, Final residual = 0, No Iterations 0
smoothSolver:  Solving for epsilon, Initial residual = 0.0517796, Final residual = 2.43437e-07, No Iterations 5
smoothSolver:  Solving for k, Initial residual = 0.0351792, Final residual = 5.03619e-07, No Iterations 6
Uncorrected Ubar = 10.5404, pressure gradient = -0.0973071
Rey = 9589.21, uTau = 0.0156679, nut+ = 0, nuEff+ = 1, y+ = 97.9245, u+ = 97.9245, k+ = 0.00229739, epsilon+ = 3.31368e-07, omega+ = 0.00160263
ExecutionTime = 0.412503 s  ClockTime = 1 s

Time = 97s

DICPCG:  Solving for Ux, Initial residual = 0.00210008, Final residual = 3.28295e-07, No Iterations 2
DICPCG:  Solving for Uy, Initial residual = 0, Final residual = 0, No Iterations 0
smoothSolver:  Solving for epsilon, Initial residual = 0.199856, Final residual = 2.10732e-07, No Iterations 5
smoothSolver:  Solving for k, Initial residual = 0.0389352, Final residual = 6.86548e-07, No Iterations 6
Uncorrected Ubar = 9.48989, pressure gradient = 0.0986819
Rey = 12495.8, uTau = 0.0178856, nut+ = 0, nuEff+ = 1, y+ = 111.785, u+ = 111.785, k+ = 0.00267791, epsilon+ = 2.82175e-07, omega+ = 0.00117079
ExecutionTime = 0.420661 s  ClockTime = 1 s

Time = 98s

DICPCG:  Solving for Ux, Initial residual = 0.00232496, Final residual = 3.91033e-07, No Iterations 2
DICPCG:  Solving for Uy, Initial residual = 0, Final residual = 0, No Iterations 0
smoothSolver:  Solving for epsilon, Initial residual = 0.0566287, Final residual = 2.02506e-07, No Iterations 5
smoothSolver:  Solving for k, Initial residual = 0.0379263, Final residual = 6.86599e-07, No Iterations 6
Uncorrected Ubar = 10.483, pressure gradient = -0.0898731
Rey = 12091, uTau = 0.0175934, nut+ = 0, nuEff+ = 1, y+ = 109.959, u+ = 109.959, k+ = 0.00434188, epsilon+ = 4.57793e-07, omega+ = 0.00117152
ExecutionTime = 0.428639 s  ClockTime = 1 s

Time = 99s

DICPCG:  Solving for Ux, Initial residual = 0.00182357, Final residual = 4.3714e-07, No Iterations 2
DICPCG:  Solving for Uy, Initial residual = 0, Final residual = 0, No Iterations 0
smoothSolver:  Solving for epsilon, Initial residual = 0.170106, Final residual = 8.50399e-07, No Iterations 4
smoothSolver:  Solving for k, Initial residual = 0.0421701, Final residual = 5.78663e-07, No Iterations 6
Uncorrected Ubar = 9.54112, pressure gradient = 0.0916596
Rey = 15835.2, uTau = 0.0201341, nut+ = 0, nuEff+ = 1, y+ = 125.838, u+ = 125.838, k+ = 0.00555688, epsilon+ = 4.18716e-07, omega+ = 0.000837234
ExecutionTime = 0.430344 s  ClockTime = 1 s

Time = 100s

DICPCG:  Solving for Ux, Initial residual = 0.00208891, Final residual = 8.11488e-07, No Iterations 2
DICPCG:  Solving for Uy, Initial residual = 0, Final residual = 0, No Iterations 0
smoothSolver:  Solving for epsilon, Initial residual = 0.0901521, Final residual = 7.66132e-07, No Iterations 4
smoothSolver:  Solving for k, Initial residual = 0.0400014, Final residual = 4.41857e-07, No Iterations 6
Uncorrected Ubar = 10.437, pressure gradient = -0.084654
Rey = 16135.3, uTau = 0.0203239, nut+ = 0, nuEff+ = 1, y+ = 127.025, u+ = 127.025, k+ = 0.00961504, epsilon+ = 6.7598e-07, omega+ = 0.00078116
ExecutionTime = 0.447998 s  ClockTime = 1 s

Time = 101s

DICPCG:  Solving for Ux, Initial residual = 0.00179106, Final residual = 2.83914e-08, No Iterations 3
DICPCG:  Solving for Uy, Initial residual = 0, Final residual = 0, No Iterations 0
smoothSolver:  Solving for epsilon, Initial residual = 0.164062, Final residual = 5.30017e-07, No Iterations 4
smoothSolver:  Solving for k, Initial residual = 0.049767, Final residual = 3.10773e-07, No Iterations 6
Uncorrected Ubar = 9.58013, pressure gradient = 0.0872835
Rey = 20764.6, uTau = 0.0230559, nut+ = 0, nuEff+ = 1, y+ = 144.099, u+ = 144.099, k+ = 0.0137313, epsilon+ = 7.19628e-07, omega+ = 0.000582312
ExecutionTime = 0.449809 s  ClockTime = 1 s

Time = 102s

DICPCG:  Solving for Ux, Initial residual = 0.00210804, Final residual = 2.69296e-08, No Iterations 3
DICPCG:  Solving for Uy, Initial residual = 0, Final residual = 0, No Iterations 0
smoothSolver:  Solving for epsilon, Initial residual = 0.12439, Final residual = 4.0926e-07, No Iterations 4
smoothSolver:  Solving for k, Initial residual = 0.0506879, Final residual = 9.96187e-07, No Iterations 5
Uncorrected Ubar = 10.4016, pressure gradient = -0.0805646
Rey = 20935.3, uTau = 0.0238506, nut+ = 0.0614052, nuEff+ = 1.06141, y+ = 149.066, u+ = 140.443, k+ = 0.0231898, epsilon+ = 1.1549e-06, omega+ = 0.000553358
ExecutionTime = 0.460569 s  ClockTime = 1 s

Time = 103s

DICPCG:  Solving for Ux, Initial residual = 0.00196553, Final residual = 5.24704e-08, No Iterations 3
DICPCG:  Solving for Uy, Initial residual = 0, Final residual = 0, No Iterations 0
smoothSolver:  Solving for epsilon, Initial residual = 0.146629, Final residual = 3.4748e-07, No Iterations 4
smoothSolver:  Solving for k, Initial residual = 0.0653714, Final residual = 5.62175e-07, No Iterations 5
Uncorrected Ubar = 9.60891, pressure gradient = 0.0850181
Rey = 25053.9, uTau = 0.0636185, nut+ = 5.31031, nuEff+ = 6.31031, y+ = 397.615, u+ = 63.0104, k+ = 0.241642, epsilon+ = 1.87556e-07, omega+ = 8.62413e-06
ExecutionTime = 0.462807 s  ClockTime = 1 s

Time = 104s

DICPCG:  Solving for Ux, Initial residual = 0.0533997, Final residual = 7.18514e-09, No Iterations 3
DICPCG:  Solving for Uy, Initial residual = 0, Final residual = 0, No Iterations 0
smoothSolver:  Solving for epsilon, Initial residual = 0.21687, Final residual = 2.0041e-07, No Iterations 4
smoothSolver:  Solving for k, Initial residual = 0.179249, Final residual = 4.84004e-07, No Iterations 11
Uncorrected Ubar = 10.3619, pressure gradient = -0.0727542
Rey = 24148.5, uTau = 0.0597092, nut+ = 4.76703, nuEff+ = 5.76703, y+ = 373.182, u+ = 64.7096, k+ = 0.222235, epsilon+ = 0.000154298, omega+ = 0.00771448
ExecutionTime = 0.464693 s  ClockTime = 1 s

Time = 105s

DICPCG:  Solving for Ux, Initial residual = 0.00314473, Final residual = 6.12668e-07, No Iterations 2
DICPCG:  Solving for Uy, Initial residual = 0, Final residual = 0, No Iterations 0
smoothSolver:  Solving for epsilon, Initial residual = 0.0762131, Final residual = 2.07633e-07, No Iterations 4
smoothSolver:  Solving for k, Initial residual = 0.131313, Final residual = 2.54342e-07, No Iterations 6
Uncorrected Ubar = 9.63989, pressure gradient = 0.085351
Rey = 23176.8, uTau = 0.095601, nut+ = 14.4039, nuEff+ = 15.4039, y+ = 597.506, u+ = 38.7893, k+ = 0.840588, epsilon+ = 1.71202e-05, omega+ = 0.0002263
ExecutionTime = 0.477165 s  ClockTime = 1 s

Time = 106s

DICPCG:  Solving for Ux, Initial residual = 0.0390557, Final residual = 3.79145e-08, No Iterations 3
DICPCG:  Solving for Uy, Initial residual = 0, Final residual = 0, No Iterations 0
smoothSolver:  Solving for epsilon, Initial residual = 0.380824, Final residual = 4.49723e-07, No Iterations 3
smoothSolver:  Solving for k, Initial residual = 0.134929, Final residual = 6.15397e-07, No Iterations 6
Uncorrected Ubar = 10.3458, pressure gradient = -0.071362
Rey = 22638, uTau = 0.099773, nut+ = 16.1771, nuEff+ = 17.1771, y+ = 623.581, u+ = 36.3031, k+ = 0.989793, epsilon+ = 0.00043574, omega+ = 0.00489148
ExecutionTime = 0.480626 s  ClockTime = 1 s

Time = 107s

DICPCG:  Solving for Ux, Initial residual = 0.00371225, Final residual = 4.16894e-08, No Iterations 3
DICPCG:  Solving for Uy, Initial residual = 0, Final residual = 0, No Iterations 0
smoothSolver:  Solving for epsilon, Initial residual = 0.149546, Final residual = 6.68356e-07, No Iterations 3
smoothSolver:  Solving for k, Initial residual = 0.193016, Final residual = 8.45994e-07, No Iterations 5
Uncorrected Ubar = 9.65352, pressure gradient = 0.0873554
Rey = 22984.6, uTau = 0.122651, nut+ = 24.5663, nuEff+ = 25.5663, y+ = 766.57, u+ = 29.9837, k+ = 1.61718, epsilon+ = 0.000277132, omega+ = 0.00190408
ExecutionTime = 0.482612 s  ClockTime = 1 s

Time = 108s

DICPCG:  Solving for Ux, Initial residual = 0.00636193, Final residual = 6.70688e-08, No Iterations 3
DICPCG:  Solving for Uy, Initial residual = 0, Final residual = 0, No Iterations 0
smoothSolver:  Solving for epsilon, Initial residual = 0.113952, Final residual = 2.6098e-07, No Iterations 3
smoothSolver:  Solving for k, Initial residual = 0.146712, Final residual = 3.47253e-07, No Iterations 5
Uncorrected Ubar = 10.3351, pressure gradient = -0.070618
Rey = 20761.9, uTau = 0.124615, nut+ = 28.2169, nuEff+ = 29.2169, y+ = 778.845, u+ = 26.6573, k+ = 2.11873, epsilon+ = 0.00100899, omega+ = 0.0052914
ExecutionTime = 0.484806 s  ClockTime = 1 s

Time = 109s

DICPCG:  Solving for Ux, Initial residual = 0.00479963, Final residual = 5.40772e-08, No Iterations 3
DICPCG:  Solving for Uy, Initial residual = 0, Final residual = 0, No Iterations 0
smoothSolver:  Solving for epsilon, Initial residual = 0.119283, Final residual = 2.39013e-07, No Iterations 3
smoothSolver:  Solving for k, Initial residual = 0.152751, Final residual = 8.41491e-07, No Iterations 4
Uncorrected Ubar = 9.66864, pressure gradient = 0.0872352
Rey = 21574.2, uTau = 0.135546, nut+ = 32.2658, nuEff+ = 33.2658, y+ = 847.163, u+ = 25.4665, k+ = 2.4002, epsilon+ = 0.00113369, omega+ = 0.00524815
ExecutionTime = 0.488844 s  ClockTime = 1 s

Time = 110s

DICPCG:  Solving for Ux, Initial residual = 0.00468118, Final residual = 4.17201e-08, No Iterations 3
DICPCG:  Solving for Uy, Initial residual = 0, Final residual = 0, No Iterations 0
smoothSolver:  Solving for epsilon, Initial residual = 0.0941211, Final residual = 1.35844e-07, No Iterations 3
smoothSolver:  Solving for k, Initial residual = 0.105691, Final residual = 3.94396e-07, No Iterations 4
Uncorrected Ubar = 10.3159, pressure gradient = -0.0679198
Rey = 18533.9, uTau = 0.127502, nut+ = 33.263, nuEff+ = 34.263, y+ = 796.885, u+ = 23.2579, k+ = 2.89935, epsilon+ = 0.00224692, omega+ = 0.00861082
ExecutionTime = 0.500737 s  ClockTime = 1 s

Time = 111s

DICPCG:  Solving for Ux, Initial residual = 0.005817, Final residual = 3.12249e-08, No Iterations 3
DICPCG:  Solving for Uy, Initial residual = 0, Final residual = 0, No Iterations 0
smoothSolver:  Solving for epsilon, Initial residual = 0.088119, Final residual = 1.32497e-07, No Iterations 3
smoothSolver:  Solving for k, Initial residual = 0.115236, Final residual = 4.99381e-07, No Iterations 4
Uncorrected Ubar = 9.69167, pressure gradient = 0.0849073
[...]
ExecutionTime = 3.145 s  ClockTime = 4 s

Time = 971s

DICPCG:  Solving for Ux, Initial residual = 0.000365409, Final residual = 1.38838e-07, No Iterations 1
DICPCG:  Solving for Uy, Initial residual = 0, Final residual = 0, No Iterations 0
smoothSolver:  Solving for epsilon, Initial residual = 0.00045304, Final residual = 5.72269e-07, No Iterations 6
smoothSolver:  Solving for k, Initial residual = 0.0144877, Final residual = 7.01767e-07, No Iterations 9
Uncorrected Ubar = 10, pressure gradient = 1.96137
Rey = 48081.5, uTau = 0.320018, nut+ = 82.2015, nuEff+ = 83.2015, y+ = 2000.11, u+ = 24.0394, k+ = 3.35383, epsilon+ = 0.00123109, omega+ = 0.00407855
ExecutionTime = 3.14588 s  ClockTime = 4 s

Time = 972s

DICPCG:  Solving for Ux, Initial residual = 0.00036356, Final residual = 1.38876e-07, No Iterations 1
DICPCG:  Solving for Uy, Initial residual = 0, Final residual = 0, No Iterations 0
smoothSolver:  Solving for epsilon, Initial residual = 0.000451294, Final residual = 5.70032e-07, No Iterations 6
smoothSolver:  Solving for k, Initial residual = 0.0145308, Final residual = 7.03853e-07, No Iterations 9
Uncorrected Ubar = 10, pressure gradient = 1.96512
Rey = 48077, uTau = 0.319988, nut+ = 82.1938, nuEff+ = 83.1938, y+ = 1999.93, u+ = 24.0394, k+ = 3.35376, epsilon+ = 0.00123117, omega+ = 0.00407889
ExecutionTime = 3.1468 s  ClockTime = 4 s

Time = 973s

DICPCG:  Solving for Ux, Initial residual = 0.000361725, Final residual = 1.38908e-07, No Iterations 1
DICPCG:  Solving for Uy, Initial residual = 0, Final residual = 0, No Iterations 0
smoothSolver:  Solving for epsilon, Initial residual = 0.000449554, Final residual = 5.67804e-07, No Iterations 6
smoothSolver:  Solving for k, Initial residual = 0.0145744, Final residual = 7.05962e-07, No Iterations 9
Uncorrected Ubar = 10, pressure gradient = 1.96886
Rey = 48072.5, uTau = 0.319959, nut+ = 82.1861, nuEff+ = 83.1861, y+ = 1999.74, u+ = 24.0394, k+ = 3.3537, epsilon+ = 0.00123124, omega+ = 0.00407922
ExecutionTime = 3.14767 s  ClockTime = 4 s

Time = 974s

DICPCG:  Solving for Ux, Initial residual = 0.000359941, Final residual = 1.38934e-07, No Iterations 1
DICPCG:  Solving for Uy, Initial residual = 0, Final residual = 0, No Iterations 0
smoothSolver:  Solving for epsilon, Initial residual = 0.000447822, Final residual = 5.65585e-07, No Iterations 6
smoothSolver:  Solving for k, Initial residual = 0.0146185, Final residual = 7.08094e-07, No Iterations 9
Uncorrected Ubar = 10, pressure gradient = 1.97257
Rey = 48068, uTau = 0.319929, nut+ = 82.1784, nuEff+ = 83.1784, y+ = 1999.56, u+ = 24.0394, k+ = 3.35363, epsilon+ = 0.00123132, omega+ = 0.00407956
ExecutionTime = 3.14854 s  ClockTime = 4 s

Time = 975s

DICPCG:  Solving for Ux, Initial residual = 0.00035816, Final residual = 1.38954e-07, No Iterations 1
DICPCG:  Solving for Uy, Initial residual = 0, Final residual = 0, No Iterations 0
smoothSolver:  Solving for epsilon, Initial residual = 0.000446096, Final residual = 5.63375e-07, No Iterations 6
smoothSolver:  Solving for k, Initial residual = 0.014663, Final residual = 7.1025e-07, No Iterations 9
Uncorrected Ubar = 10, pressure gradient = 1.97627
Rey = 48063.5, uTau = 0.319899, nut+ = 82.1707, nuEff+ = 83.1707, y+ = 1999.37, u+ = 24.0393, k+ = 3.35356, epsilon+ = 0.0012314, omega+ = 0.0040799
ExecutionTime = 3.14985 s  ClockTime = 4 s

Time = 976s

DICPCG:  Solving for Ux, Initial residual = 0.000356382, Final residual = 1.38968e-07, No Iterations 1
DICPCG:  Solving for Uy, Initial residual = 0, Final residual = 0, No Iterations 0
smoothSolver:  Solving for epsilon, Initial residual = 0.000444377, Final residual = 5.61172e-07, No Iterations 6
smoothSolver:  Solving for k, Initial residual = 0.0147081, Final residual = 7.1243e-07, No Iterations 9
Uncorrected Ubar = 10, pressure gradient = 1.97995
Rey = 48059.1, uTau = 0.31987, nut+ = 82.1631, nuEff+ = 83.1631, y+ = 1999.18, u+ = 24.0393, k+ = 3.3535, epsilon+ = 0.00123148, omega+ = 0.00408023
ExecutionTime = 3.15095 s  ClockTime = 4 s

Time = 977s

DICPCG:  Solving for Ux, Initial residual = 0.000354606, Final residual = 1.38975e-07, No Iterations 1
DICPCG:  Solving for Uy, Initial residual = 0, Final residual = 0, No Iterations 0
smoothSolver:  Solving for epsilon, Initial residual = 0.000442665, Final residual = 5.58978e-07, No Iterations 6
smoothSolver:  Solving for k, Initial residual = 0.0147533, Final residual = 7.14617e-07, No Iterations 9
Uncorrected Ubar = 10, pressure gradient = 1.98361
Rey = 48054.6, uTau = 0.31984, nut+ = 82.1554, nuEff+ = 83.1554, y+ = 1999, u+ = 24.0393, k+ = 3.35343, epsilon+ = 0.00123155, omega+ = 0.00408057
ExecutionTime = 3.15339 s  ClockTime = 4 s

Time = 978s

DICPCG:  Solving for Ux, Initial residual = 0.000352832, Final residual = 1.38976e-07, No Iterations 1
DICPCG:  Solving for Uy, Initial residual = 0, Final residual = 0, No Iterations 0
smoothSolver:  Solving for epsilon, Initial residual = 0.00044096, Final residual = 5.56793e-07, No Iterations 6
smoothSolver:  Solving for k, Initial residual = 0.0147963, Final residual = 7.16697e-07, No Iterations 9
Uncorrected Ubar = 10, pressure gradient = 1.98726
Rey = 48050.1, uTau = 0.31981, nut+ = 82.1478, nuEff+ = 83.1478, y+ = 1998.81, u+ = 24.0393, k+ = 3.35337, epsilon+ = 0.00123163, omega+ = 0.00408091
ExecutionTime = 3.15473 s  ClockTime = 4 s

Time = 979s

DICPCG:  Solving for Ux, Initial residual = 0.000351061, Final residual = 1.38971e-07, No Iterations 1
DICPCG:  Solving for Uy, Initial residual = 0, Final residual = 0, No Iterations 0
smoothSolver:  Solving for epsilon, Initial residual = 0.000439261, Final residual = 5.54616e-07, No Iterations 6
smoothSolver:  Solving for k, Initial residual = 0.0148386, Final residual = 7.18746e-07, No Iterations 9
Uncorrected Ubar = 10, pressure gradient = 1.99089
Rey = 48045.6, uTau = 0.319781, nut+ = 82.1401, nuEff+ = 83.1401, y+ = 1998.63, u+ = 24.0393, k+ = 3.3533, epsilon+ = 0.00123171, omega+ = 0.00408125
ExecutionTime = 3.15578 s  ClockTime = 4 s

Time = 980s

DICPCG:  Solving for Ux, Initial residual = 0.000349293, Final residual = 1.38959e-07, No Iterations 1
DICPCG:  Solving for Uy, Initial residual = 0, Final residual = 0, No Iterations 0
smoothSolver:  Solving for epsilon, Initial residual = 0.000437569, Final residual = 5.52447e-07, No Iterations 6
smoothSolver:  Solving for k, Initial residual = 0.0148814, Final residual = 7.20817e-07, No Iterations 9
Uncorrected Ubar = 10, pressure gradient = 1.9945
Rey = 48041.1, uTau = 0.319751, nut+ = 82.1325, nuEff+ = 83.1325, y+ = 1998.44, u+ = 24.0393, k+ = 3.35324, epsilon+ = 0.00123179, omega+ = 0.00408158
ExecutionTime = 3.15675 s  ClockTime = 4 s

Time = 981s

DICPCG:  Solving for Ux, Initial residual = 0.000347527, Final residual = 1.38968e-07, No Iterations 1
DICPCG:  Solving for Uy, Initial residual = 0, Final residual = 0, No Iterations 0
smoothSolver:  Solving for epsilon, Initial residual = 0.000435883, Final residual = 5.50287e-07, No Iterations 6
smoothSolver:  Solving for k, Initial residual = 0.0149247, Final residual = 7.22911e-07, No Iterations 9
Uncorrected Ubar = 10, pressure gradient = 1.99809
Rey = 48036.6, uTau = 0.319721, nut+ = 82.1249, nuEff+ = 83.1249, y+ = 1998.26, u+ = 24.0392, k+ = 3.35318, epsilon+ = 0.00123187, omega+ = 0.00408192
ExecutionTime = 3.15835 s  ClockTime = 4 s

Time = 982s

DICPCG:  Solving for Ux, Initial residual = 0.000345763, Final residual = 1.38972e-07, No Iterations 1
DICPCG:  Solving for Uy, Initial residual = 0, Final residual = 0, No Iterations 0
smoothSolver:  Solving for epsilon, Initial residual = 0.000434204, Final residual = 5.48135e-07, No Iterations 6
smoothSolver:  Solving for k, Initial residual = 0.0149685, Final residual = 7.25028e-07, No Iterations 9
Uncorrected Ubar = 10, pressure gradient = 2.00167
Rey = 48032.1, uTau = 0.319692, nut+ = 82.1173, nuEff+ = 83.1173, y+ = 1998.07, u+ = 24.0392, k+ = 3.35311, epsilon+ = 0.00123195, omega+ = 0.00408226
ExecutionTime = 3.16002 s  ClockTime = 4 s

Time = 983s

DICPCG:  Solving for Ux, Initial residual = 0.000344002, Final residual = 1.38969e-07, No Iterations 1
DICPCG:  Solving for Uy, Initial residual = 0, Final residual = 0, No Iterations 0
smoothSolver:  Solving for epsilon, Initial residual = 0.000432532, Final residual = 5.45991e-07, No Iterations 6
smoothSolver:  Solving for k, Initial residual = 0.0150128, Final residual = 7.27169e-07, No Iterations 9
Uncorrected Ubar = 10, pressure gradient = 2.00522
Rey = 48027.7, uTau = 0.319662, nut+ = 82.1097, nuEff+ = 83.1097, y+ = 1997.89, u+ = 24.0392, k+ = 3.35305, epsilon+ = 0.00123202, omega+ = 0.0040826
ExecutionTime = 3.16112 s  ClockTime = 4 s

Time = 984s

DICPCG:  Solving for Ux, Initial residual = 0.000342244, Final residual = 1.38958e-07, No Iterations 1
DICPCG:  Solving for Uy, Initial residual = 0, Final residual = 0, No Iterations 0
smoothSolver:  Solving for epsilon, Initial residual = 0.000430866, Final residual = 5.43856e-07, No Iterations 6
smoothSolver:  Solving for k, Initial residual = 0.0150575, Final residual = 7.29334e-07, No Iterations 9
Uncorrected Ubar = 10, pressure gradient = 2.00877
Rey = 48023.2, uTau = 0.319633, nut+ = 82.1021, nuEff+ = 83.1021, y+ = 1997.71, u+ = 24.0392, k+ = 3.35299, epsilon+ = 0.0012321, omega+ = 0.00408294
ExecutionTime = 3.16374 s  ClockTime = 4 s

Time = 985s

DICPCG:  Solving for Ux, Initial residual = 0.000340488, Final residual = 1.38976e-07, No Iterations 1
DICPCG:  Solving for Uy, Initial residual = 0, Final residual = 0, No Iterations 0
smoothSolver:  Solving for epsilon, Initial residual = 0.000429207, Final residual = 5.41728e-07, No Iterations 6
smoothSolver:  Solving for k, Initial residual = 0.0151028, Final residual = 7.31523e-07, No Iterations 9
Uncorrected Ubar = 10, pressure gradient = 2.01229
Rey = 48018.7, uTau = 0.319603, nut+ = 82.0945, nuEff+ = 83.0945, y+ = 1997.52, u+ = 24.0391, k+ = 3.35293, epsilon+ = 0.00123218, omega+ = 0.00408327
ExecutionTime = 3.16642 s  ClockTime = 4 s

Time = 986s

DICPCG:  Solving for Ux, Initial residual = 0.000338732, Final residual = 1.39023e-07, No Iterations 1
DICPCG:  Solving for Uy, Initial residual = 0, Final residual = 0, No Iterations 0
smoothSolver:  Solving for epsilon, Initial residual = 0.000427554, Final residual = 5.39609e-07, No Iterations 6
smoothSolver:  Solving for k, Initial residual = 0.0151485, Final residual = 7.33737e-07, No Iterations 9
Uncorrected Ubar = 10, pressure gradient = 2.0158
Rey = 48014.2, uTau = 0.319574, nut+ = 82.0869, nuEff+ = 83.0869, y+ = 1997.34, u+ = 24.0391, k+ = 3.35287, epsilon+ = 0.00123226, omega+ = 0.00408361
ExecutionTime = 3.16791 s  ClockTime = 4 s

Time = 987s

DICPCG:  Solving for Ux, Initial residual = 0.000336971, Final residual = 1.39061e-07, No Iterations 1
DICPCG:  Solving for Uy, Initial residual = 0, Final residual = 0, No Iterations 0
smoothSolver:  Solving for epsilon, Initial residual = 0.000425908, Final residual = 5.37498e-07, No Iterations 6
smoothSolver:  Solving for k, Initial residual = 0.0151948, Final residual = 7.35975e-07, No Iterations 9
Uncorrected Ubar = 10, pressure gradient = 2.01929
Rey = 48009.7, uTau = 0.319544, nut+ = 82.0794, nuEff+ = 83.0794, y+ = 1997.15, u+ = 24.0391, k+ = 3.35281, epsilon+ = 0.00123234, omega+ = 0.00408395
ExecutionTime = 3.17204 s  ClockTime = 4 s

Time = 988s

DICPCG:  Solving for Ux, Initial residual = 0.000335208, Final residual = 1.39089e-07, No Iterations 1
DICPCG:  Solving for Uy, Initial residual = 0, Final residual = 0, No Iterations 0
smoothSolver:  Solving for epsilon, Initial residual = 0.000424268, Final residual = 5.35395e-07, No Iterations 6
smoothSolver:  Solving for k, Initial residual = 0.0152416, Final residual = 7.38239e-07, No Iterations 9
Uncorrected Ubar = 10, pressure gradient = 2.02276
Rey = 48005.2, uTau = 0.319515, nut+ = 82.0718, nuEff+ = 83.0718, y+ = 1996.97, u+ = 24.0391, k+ = 3.35275, epsilon+ = 0.00123242, omega+ = 0.00408429
ExecutionTime = 3.17389 s  ClockTime = 4 s

Time = 989s

DICPCG:  Solving for Ux, Initial residual = 0.000333448, Final residual = 1.3911e-07, No Iterations 1
DICPCG:  Solving for Uy, Initial residual = 0, Final residual = 0, No Iterations 0
smoothSolver:  Solving for epsilon, Initial residual = 0.000422634, Final residual = 5.333e-07, No Iterations 6
smoothSolver:  Solving for k, Initial residual = 0.015289, Final residual = 7.40529e-07, No Iterations 9
Uncorrected Ubar = 10, pressure gradient = 2.02621
Rey = 48000.7, uTau = 0.319485, nut+ = 82.0643, nuEff+ = 83.0643, y+ = 1996.78, u+ = 24.039, k+ = 3.35269, epsilon+ = 0.0012325, omega+ = 0.00408463
ExecutionTime = 3.1751 s  ClockTime = 4 s

Time = 990s

DICPCG:  Solving for Ux, Initial residual = 0.00033169, Final residual = 1.39124e-07, No Iterations 1
DICPCG:  Solving for Uy, Initial residual = 0, Final residual = 0, No Iterations 0
smoothSolver:  Solving for epsilon, Initial residual = 0.000421007, Final residual = 5.31213e-07, No Iterations 6
smoothSolver:  Solving for k, Initial residual = 0.0153369, Final residual = 7.42845e-07, No Iterations 9
Uncorrected Ubar = 10, pressure gradient = 2.02965
Rey = 47996.2, uTau = 0.319456, nut+ = 82.0567, nuEff+ = 83.0567, y+ = 1996.6, u+ = 24.039, k+ = 3.35263, epsilon+ = 0.00123258, omega+ = 0.00408497
ExecutionTime = 3.17621 s  ClockTime = 4 s

Time = 991s

DICPCG:  Solving for Ux, Initial residual = 0.000329936, Final residual = 1.3913e-07, No Iterations 1
DICPCG:  Solving for Uy, Initial residual = 0, Final residual = 0, No Iterations 0
smoothSolver:  Solving for epsilon, Initial residual = 0.000419387, Final residual = 5.29134e-07, No Iterations 6
smoothSolver:  Solving for k, Initial residual = 0.0153853, Final residual = 7.45187e-07, No Iterations 9
Uncorrected Ubar = 10, pressure gradient = 2.03307
Rey = 47991.7, uTau = 0.319427, nut+ = 82.0492, nuEff+ = 83.0492, y+ = 1996.42, u+ = 24.039, k+ = 3.35257, epsilon+ = 0.00123267, omega+ = 0.00408531
ExecutionTime = 3.17732 s  ClockTime = 4 s

Time = 992s

DICPCG:  Solving for Ux, Initial residual = 0.000328184, Final residual = 1.39129e-07, No Iterations 1
DICPCG:  Solving for Uy, Initial residual = 0, Final residual = 0, No Iterations 0
smoothSolver:  Solving for epsilon, Initial residual = 0.000417772, Final residual = 5.27063e-07, No Iterations 6
smoothSolver:  Solving for k, Initial residual = 0.0154343, Final residual = 7.47557e-07, No Iterations 9
Uncorrected Ubar = 10, pressure gradient = 2.03648
Rey = 47987.3, uTau = 0.319397, nut+ = 82.0417, nuEff+ = 83.0417, y+ = 1996.23, u+ = 24.0389, k+ = 3.35251, epsilon+ = 0.00123275, omega+ = 0.00408565
ExecutionTime = 3.17903 s  ClockTime = 4 s

Time = 993s

DICPCG:  Solving for Ux, Initial residual = 0.000326435, Final residual = 1.39119e-07, No Iterations 1
DICPCG:  Solving for Uy, Initial residual = 0, Final residual = 0, No Iterations 0
smoothSolver:  Solving for epsilon, Initial residual = 0.000416164, Final residual = 5.25e-07, No Iterations 6
smoothSolver:  Solving for k, Initial residual = 0.0154839, Final residual = 7.49953e-07, No Iterations 9
Uncorrected Ubar = 10, pressure gradient = 2.03987
Rey = 47982.8, uTau = 0.319368, nut+ = 82.0342, nuEff+ = 83.0342, y+ = 1996.05, u+ = 24.0389, k+ = 3.35245, epsilon+ = 0.00123283, omega+ = 0.00408599
ExecutionTime = 3.18086 s  ClockTime = 4 s

Time = 994s

DICPCG:  Solving for Ux, Initial residual = 0.000324689, Final residual = 1.39102e-07, No Iterations 1
DICPCG:  Solving for Uy, Initial residual = 0, Final residual = 0, No Iterations 0
smoothSolver:  Solving for epsilon, Initial residual = 0.000414562, Final residual = 5.22945e-07, No Iterations 6
smoothSolver:  Solving for k, Initial residual = 0.015534, Final residual = 7.52378e-07, No Iterations 9
Uncorrected Ubar = 10, pressure gradient = 2.04324
Rey = 47978.3, uTau = 0.319338, nut+ = 82.0267, nuEff+ = 83.0267, y+ = 1995.86, u+ = 24.0388, k+ = 3.3524, epsilon+ = 0.00123291, omega+ = 0.00408633
ExecutionTime = 3.18302 s  ClockTime = 4 s

Time = 995s

DICPCG:  Solving for Ux, Initial residual = 0.000322946, Final residual = 1.39077e-07, No Iterations 1
DICPCG:  Solving for Uy, Initial residual = 0, Final residual = 0, No Iterations 0
smoothSolver:  Solving for epsilon, Initial residual = 0.000412967, Final residual = 5.20897e-07, No Iterations 6
smoothSolver:  Solving for k, Initial residual = 0.0155847, Final residual = 7.54831e-07, No Iterations 9
Uncorrected Ubar = 10, pressure gradient = 2.04659
Rey = 47973.8, uTau = 0.319309, nut+ = 82.0192, nuEff+ = 83.0192, y+ = 1995.68, u+ = 24.0388, k+ = 3.35234, epsilon+ = 0.00123299, omega+ = 0.00408667
ExecutionTime = 3.18734 s  ClockTime = 4 s

Time = 996s

DICPCG:  Solving for Ux, Initial residual = 0.000321205, Final residual = 1.39043e-07, No Iterations 1
DICPCG:  Solving for Uy, Initial residual = 0, Final residual = 0, No Iterations 0
smoothSolver:  Solving for epsilon, Initial residual = 0.000411378, Final residual = 5.18858e-07, No Iterations 6
smoothSolver:  Solving for k, Initial residual = 0.0156361, Final residual = 7.57312e-07, No Iterations 9
Uncorrected Ubar = 10, pressure gradient = 2.04993
Rey = 47969.3, uTau = 0.31928, nut+ = 82.0117, nuEff+ = 83.0117, y+ = 1995.5, u+ = 24.0388, k+ = 3.35228, epsilon+ = 0.00123307, omega+ = 0.00408701
ExecutionTime = 3.19024 s  ClockTime = 4 s

Time = 997s

DICPCG:  Solving for Ux, Initial residual = 0.000319574, Final residual = 1.39002e-07, No Iterations 1
DICPCG:  Solving for Uy, Initial residual = 0, Final residual = 0, No Iterations 0
smoothSolver:  Solving for epsilon, Initial residual = 0.000409795, Final residual = 5.16826e-07, No Iterations 6
smoothSolver:  Solving for k, Initial residual = 0.015688, Final residual = 7.59823e-07, No Iterations 9
Uncorrected Ubar = 10, pressure gradient = 2.05325
Rey = 47964.8, uTau = 0.31925, nut+ = 82.0042, nuEff+ = 83.0042, y+ = 1995.31, u+ = 24.0387, k+ = 3.35223, epsilon+ = 0.00123315, omega+ = 0.00408735
ExecutionTime = 3.19283 s  ClockTime = 4 s

Time = 998s

DICPCG:  Solving for Ux, Initial residual = 0.00031797, Final residual = 1.38951e-07, No Iterations 1
DICPCG:  Solving for Uy, Initial residual = 0, Final residual = 0, No Iterations 0
smoothSolver:  Solving for epsilon, Initial residual = 0.000408218, Final residual = 5.14803e-07, No Iterations 6
smoothSolver:  Solving for k, Initial residual = 0.0157405, Final residual = 7.62363e-07, No Iterations 9
Uncorrected Ubar = 10, pressure gradient = 2.05655
Rey = 47960.3, uTau = 0.319221, nut+ = 81.9967, nuEff+ = 82.9967, y+ = 1995.13, u+ = 24.0387, k+ = 3.35217, epsilon+ = 0.00123324, omega+ = 0.00408769
ExecutionTime = 3.19424 s  ClockTime = 4 s

Time = 999s

DICPCG:  Solving for Ux, Initial residual = 0.000316369, Final residual = 1.38892e-07, No Iterations 1
DICPCG:  Solving for Uy, Initial residual = 0, Final residual = 0, No Iterations 0
smoothSolver:  Solving for epsilon, Initial residual = 0.000406647, Final residual = 5.12786e-07, No Iterations 6
smoothSolver:  Solving for k, Initial residual = 0.0157937, Final residual = 7.64933e-07, No Iterations 9
Uncorrected Ubar = 10, pressure gradient = 2.05984
Rey = 47955.8, uTau = 0.319192, nut+ = 81.9893, nuEff+ = 82.9893, y+ = 1994.95, u+ = 24.0386, k+ = 3.35212, epsilon+ = 0.00123332, omega+ = 0.00408803
ExecutionTime = 3.19546 s  ClockTime = 4 s

Time = 1000s

DICPCG:  Solving for Ux, Initial residual = 0.000314769, Final residual = 1.38825e-07, No Iterations 1
DICPCG:  Solving for Uy, Initial residual = 0, Final residual = 0, No Iterations 0
smoothSolver:  Solving for epsilon, Initial residual = 0.000405082, Final residual = 5.10778e-07, No Iterations 6
smoothSolver:  Solving for k, Initial residual = 0.0158475, Final residual = 7.67534e-07, No Iterations 9
Uncorrected Ubar = 10, pressure gradient = 2.06311
Rey = 47951.3, uTau = 0.319162, nut+ = 81.9818, nuEff+ = 82.9818, y+ = 1994.77, u+ = 24.0386, k+ = 3.35206, epsilon+ = 0.0012334, omega+ = 0.00408837
ExecutionTime = 3.19926 s  ClockTime = 4 s

End

