/*---------------------------------------------------------------------------*\
  =========                 |
  \\      /  F ield         | OpenFOAM: The Open Source CFD Toolbox
   \\    /   O peration     | Website:  https://openfoam.org
    \\  /    A nd           | Version:  12
     \\/     M anipulation  |
\*---------------------------------------------------------------------------*/
Build  : 12-cc05c1b03c38
Exec   : foamRun
Date   : Oct 10 2024
Time   : 23:17:09
Host   : "DESKTOP-KBPC6IC"
PID    : 4902
I/O    : uncollated
Case   : /home/as/openfoam/OpenFOAM-12/test/multiphaseEuler/thermal/waterEvaporation
nProcs : 1
sigFpe : Enabling floating point exception trapping (FOAM_SIGFPE).
fileModificationChecking : Monitoring run-time modified files using timeStampMaster (fileModificationSkew 10)
allowSystemOperations : Allowing user-supplied system call operations

// * * * * * * * * * * * * * * * * * * * * * * * * * * * * * * * * * * * * * //
Create time

Create mesh for time = 0

Selecting solver multiphaseEuler
Selecting phaseSystem thermalPhaseChangeMultiphaseSystem
No MRF models present

Selecting phaseModel for steam: purePhaseModel
Selecting diameterModel for phase steam: none
Selecting thermodynamics package 
{
    type            heRhoThermo;
    mixture         pureMixture;
    transport       const;
    thermo          hConst;
    equationOfState perfectGas;
    specie          specie;
    energy          sensibleEnthalpy;
}

Calculating face flux field phi.steam
Selecting turbulence model type laminar
Selecting laminar stress model Stokes
Selecting thermophysical transport type laminar
Selecting default laminar thermophysical transport model unityLewisFourier
Selecting phaseModel for water: purePhaseModel
Selecting diameterModel for phase water: constant
Selecting thermodynamics package 
{
    type            heRhoThermo;
    mixture         pureMixture;
    transport       const;
    thermo          eConst;
    equationOfState rhoConst;
    specie          specie;
    energy          sensibleInternalEnergy;
}

Calculating face flux field phi.water
Selecting turbulence model type laminar
Selecting laminar stress model Stokes
Selecting thermophysical transport type laminar
Selecting default laminar thermophysical transport model unityLewisFourier
Selecting interfaceSurfaceTensionModel for steam_water: constant
Selecting heatTransferModel blending method for steam_water_inThe_steam: continuous
Selecting heatTransferModel for water_dispersedIn_steam_inThe_steam: RanzMarshall
Selecting heatTransferModel blending method for steam_water_inThe_water: continuous
Selecting heatTransferModel for water_dispersedIn_steam_inThe_water: spherical
Selecting saturationTemperatureModel constant
Courant Number mean: 0 max: 0

PIMPLE: No convergence criteria found


PIMPLE: No corrector convergence criteria found
        Calculations will do 5 corrections


PIMPLE: Operating solver in transient mode with 5 outer correctors



Starting time loop

Using dynamicCode for coded continuity at line 4 in "/home/as/openfoam/OpenFOAM-12/test/multiphaseEuler/thermal/waterEvaporation/system/functions/continuity"
Courant Number mean: 0 max: 0
Time = 0.005s

PIMPLE: Iteration 1
MULES: Solving for alpha.steam
MULES: Solving for alpha.water
steam fraction, min, max = 0.99 0.99 0.99
water fraction, min, max = 0.01 0.01 0.01
Phase-sum volume fraction, min, max = 1 1 1
MULES: Solving for alpha.steam
MULES: Solving for alpha.water
steam fraction, min, max = 0.99 0.99 0.99
water fraction, min, max = 0.01 0.01 0.01
Phase-sum volume fraction, min, max = 1 1 1
MULES: Solving for alpha.steam
MULES: Solving for alpha.water
steam fraction, min, max = 0.99 0.99 0.99
water fraction, min, max = 0.01 0.01 0.01
Phase-sum volume fraction, min, max = 1 1 1
Constructing momentum equations
thermalPhaseChange:Tsat.steam_water: min = 372.76, mean = 372.76, max = 372.76
thermalPhaseChange:Tf.steam_water: min = 372.76, mean = 372.76, max = 372.76
thermalPhaseChange:dmdtf.steam_water: min = 4.007820183, mean = 4.007820183, max = 4.007820183, integral = 4.007820183
diagonal:  Solving for h.steam, Initial residual = 0, Final residual = 0, No Iterations 0
diagonal:  Solving for e.water, Initial residual = 0, Final residual = 0, No Iterations 0
steam min/max T 379.6034906 - 379.6034906
water min/max T 379.0986264 - 379.0986264
diagonal:  Solving for p_rgh, Initial residual = 0, Final residual = 0, No Iterations 0
PIMPLE: Iteration 2
MULES: Solving for alpha.steam
MULES: Solving for alpha.water
steam fraction, min, max = 0.9900064999 0.9900064999 0.9900064999
water fraction, min, max = 0.009993500138 0.009993500138 0.009993500138
Phase-sum volume fraction, min, max = 1 1 1
MULES: Solving for alpha.steam
MULES: Solving for alpha.water
steam fraction, min, max = 0.9900129955 0.9900129955 0.9900129955
water fraction, min, max = 0.0099870045 0.0099870045 0.0099870045
Phase-sum volume fraction, min, max = 1 1 1
MULES: Solving for alpha.steam
MULES: Solving for alpha.water
steam fraction, min, max = 0.9900194869 0.9900194869 0.9900194869
water fraction, min, max = 0.009980513085 0.009980513085 0.009980513085
Phase-sum volume fraction, min, max = 1 1 1
Constructing momentum equations
thermalPhaseChange:Tsat.steam_water: min = 372.76, mean = 372.76, max = 372.76
thermalPhaseChange:Tf.steam_water: min = 372.76, mean = 372.76, max = 372.76
thermalPhaseChange:dmdtf.steam_water: min = 3.503209868, mean = 3.503209868, max = 3.503209868, integral = 3.503209868
diagonal:  Solving for h.steam, Initial residual = 0, Final residual = 0, No Iterations 0
diagonal:  Solving for e.water, Initial residual = 0, Final residual = 0, No Iterations 0
steam min/max T 382.3869556 - 382.3869556
water min/max T 379.0973443 - 379.0973443
diagonal:  Solving for p_rgh, Initial residual = 0, Final residual = 0, No Iterations 0
PIMPLE: Iteration 3
MULES: Solving for alpha.steam
MULES: Solving for alpha.water
steam fraction, min, max = 0.990005693 0.990005693 0.990005693
water fraction, min, max = 0.009994306959 0.009994306959 0.009994306959
Phase-sum volume fraction, min, max = 1 1 1
MULES: Solving for alpha.steam
MULES: Solving for alpha.water
steam fraction, min, max = 0.9900113828 0.9900113828 0.9900113828
water fraction, min, max = 0.00998861716 0.00998861716 0.00998861716
Phase-sum volume fraction, min, max = 1 1 1
MULES: Solving for alpha.steam
MULES: Solving for alpha.water
steam fraction, min, max = 0.9900170694 0.9900170694 0.9900170694
water fraction, min, max = 0.0099829306 0.0099829306 0.0099829306
Phase-sum volume fraction, min, max = 1 1 1
Constructing momentum equations
thermalPhaseChange:Tsat.steam_water: min = 372.76, mean = 372.76, max = 372.76
thermalPhaseChange:Tf.steam_water: min = 372.76, mean = 372.76, max = 372.76
thermalPhaseChange:dmdtf.steam_water: min = 3.509928224, mean = 3.509928224, max = 3.509928224, integral = 3.509928224
diagonal:  Solving for h.steam, Initial residual = 0, Final residual = 0, No Iterations 0
diagonal:  Solving for e.water, Initial residual = 0, Final residual = 0, No Iterations 0
steam min/max T 382.633714 - 382.633714
water min/max T 379.0971619 - 379.0971619
diagonal:  Solving for p_rgh, Initial residual = 0, Final residual = 0, No Iterations 0
PIMPLE: Iteration 4
MULES: Solving for alpha.steam
MULES: Solving for alpha.water
steam fraction, min, max = 0.9900057026 0.9900057026 0.9900057026
water fraction, min, max = 0.009994297428 0.009994297428 0.009994297428
Phase-sum volume fraction, min, max = 1 1 1
MULES: Solving for alpha.steam
MULES: Solving for alpha.water
steam fraction, min, max = 0.9900114019 0.9900114019 0.9900114019
water fraction, min, max = 0.009988598108 0.009988598108 0.009988598108
Phase-sum volume fraction, min, max = 1 1 1
MULES: Solving for alpha.steam
MULES: Solving for alpha.water
steam fraction, min, max = 0.990017098 0.990017098 0.990017098
water fraction, min, max = 0.009982902039 0.009982902039 0.009982902039
Phase-sum volume fraction, min, max = 1 1 1
Constructing momentum equations
thermalPhaseChange:Tsat.steam_water: min = 372.76, mean = 372.76, max = 372.76
thermalPhaseChange:Tf.steam_water: min = 372.76, mean = 372.76, max = 372.76
thermalPhaseChange:dmdtf.steam_water: min = 3.510400754, mean = 3.510400754, max = 3.510400754, integral = 3.510400754
diagonal:  Solving for h.steam, Initial residual = 0, Final residual = 0, No Iterations 0
diagonal:  Solving for e.water, Initial residual = 0, Final residual = 0, No Iterations 0
steam min/max T 382.6920808 - 382.6920808
water min/max T 379.0971652 - 379.0971652
diagonal:  Solving for p_rgh, Initial residual = 0, Final residual = 0, No Iterations 0
PIMPLE: Iteration 5
MULES: Solving for alpha.steam
MULES: Solving for alpha.water
steam fraction, min, max = 0.9900057034 0.9900057034 0.9900057034
water fraction, min, max = 0.009994296645 0.009994296645 0.009994296645
Phase-sum volume fraction, min, max = 1 1 1
MULES: Solving for alpha.steam
MULES: Solving for alpha.water
steam fraction, min, max = 0.9900114035 0.9900114035 0.9900114035
water fraction, min, max = 0.009988596542 0.009988596542 0.009988596542
Phase-sum volume fraction, min, max = 1 1 1
MULES: Solving for alpha.steam
MULES: Solving for alpha.water
steam fraction, min, max = 0.9900171003 0.9900171003 0.9900171003
water fraction, min, max = 0.009982899691 0.009982899691 0.009982899691
Phase-sum volume fraction, min, max = 1 1 1
Constructing momentum equations
thermalPhaseChange:Tsat.steam_water: min = 372.76, mean = 372.76, max = 372.76
thermalPhaseChange:Tf.steam_water: min = 372.76, mean = 372.76, max = 372.76
thermalPhaseChange:dmdtf.steam_water: min = 3.510539661, mean = 3.510539661, max = 3.510539661, integral = 3.510539661
diagonal:  Solving for h.steam, Initial residual = 0, Final residual = 0, No Iterations 0
diagonal:  Solving for e.water, Initial residual = 0, Final residual = 0, No Iterations 0
steam min/max T 382.7050879 - 382.7050879
water min/max T 379.0971658 - 379.0971658
diagonal:  Solving for p_rgh, Initial residual = 0, Final residual = 0, No Iterations 0
ExecutionTime = 0.189027 s  ClockTime = 1 s

Courant Number mean: 0 max: 0
Time = 0.01s

PIMPLE: Iteration 1
MULES: Solving for alpha.steam
MULES: Solving for alpha.water
steam fraction, min, max = 0.9900227941 0.9900227941 0.9900227941
water fraction, min, max = 0.009977205862 0.009977205862 0.009977205862
Phase-sum volume fraction, min, max = 1 1 1
MULES: Solving for alpha.steam
MULES: Solving for alpha.water
steam fraction, min, max = 0.9900284847 0.9900284847 0.9900284847
water fraction, min, max = 0.00997151528 0.00997151528 0.00997151528
Phase-sum volume fraction, min, max = 1 1 1
MULES: Solving for alpha.steam
MULES: Solving for alpha.water
steam fraction, min, max = 0.9900341721 0.9900341721 0.9900341721
water fraction, min, max = 0.009965827944 0.009965827944 0.009965827944
Phase-sum volume fraction, min, max = 1 1 1
Constructing momentum equations
thermalPhaseChange:Tsat.steam_water: min = 372.76, mean = 372.76, max = 372.76
thermalPhaseChange:Tf.steam_water: min = 372.76, mean = 372.76, max = 372.76
thermalPhaseChange:dmdtf.steam_water: min = 3.504567281, mean = 3.504567281, max = 3.504567281, integral = 3.504567281
diagonal:  Solving for h.steam, Initial residual = 0, Final residual = 0, No Iterations 0
diagonal:  Solving for e.water, Initial residual = 0, Final residual = 0, No Iterations 0
steam min/max T 385.202395 - 385.202395
water min/max T 378.3080914 - 378.3080914
diagonal:  Solving for p_rgh, Initial residual = 0, Final residual = 0, No Iterations 0
PIMPLE: Iteration 2
MULES: Solving for alpha.steam
MULES: Solving for alpha.water
steam fraction, min, max = 0.9900227942 0.9900227942 0.9900227942
water fraction, min, max = 0.009977205811 0.009977205811 0.009977205811
Phase-sum volume fraction, min, max = 1 1 1
MULES: Solving for alpha.steam
MULES: Solving for alpha.water
steam fraction, min, max = 0.9900284848 0.9900284848 0.9900284848
water fraction, min, max = 0.00997151518 0.00997151518 0.00997151518
Phase-sum volume fraction, min, max = 1 1 1
MULES: Solving for alpha.steam
MULES: Solving for alpha.water
steam fraction, min, max = 0.9900341722 0.9900341722 0.9900341722
water fraction, min, max = 0.009965827794 0.009965827794 0.009965827794
Phase-sum volume fraction, min, max = 1 1 1
Constructing momentum equations
thermalPhaseChange:Tsat.steam_water: min = 372.76, mean = 372.76, max = 372.76
thermalPhaseChange:Tf.steam_water: min = 372.76, mean = 372.76, max = 372.76
thermalPhaseChange:dmdtf.steam_water: min = 3.077008632, mean = 3.077008632, max = 3.077008632, integral = 3.077008632
diagonal:  Solving for h.steam, Initial residual = 0, Final residual = 0, No Iterations 0
diagonal:  Solving for e.water, Initial residual = 0, Final residual = 0, No Iterations 0
steam min/max T 385.2305545 - 385.2305545
water min/max T 378.3059154 - 378.3059154
diagonal:  Solving for p_rgh, Initial residual = 0, Final residual = 0, No Iterations 0
PIMPLE: Iteration 3
MULES: Solving for alpha.steam
MULES: Solving for alpha.water
steam fraction, min, max = 0.9900220999 0.9900220999 0.9900220999
water fraction, min, max = 0.009977900119 0.009977900119 0.009977900119
Phase-sum volume fraction, min, max = 1 1 1
MULES: Solving for alpha.steam
MULES: Solving for alpha.water
steam fraction, min, max = 0.9900270969 0.9900270969 0.9900270969
water fraction, min, max = 0.009972903051 0.009972903051 0.009972903051
Phase-sum volume fraction, min, max = 1 1 1
MULES: Solving for alpha.steam
MULES: Solving for alpha.water
steam fraction, min, max = 0.9900320915 0.9900320915 0.9900320915
water fraction, min, max = 0.009967908486 0.009967908486 0.009967908486
Phase-sum volume fraction, min, max = 1 1 1
Constructing momentum equations
thermalPhaseChange:Tsat.steam_water: min = 372.76, mean = 372.76, max = 372.76
thermalPhaseChange:Tf.steam_water: min = 372.76, mean = 372.76, max = 372.76
thermalPhaseChange:dmdtf.steam_water: min = 3.076521443, mean = 3.076521443, max = 3.076521443, integral = 3.076521443
diagonal:  Solving for h.steam, Initial residual = 0, Final residual = 0, No Iterations 0
diagonal:  Solving for e.water, Initial residual = 0, Final residual = 0, No Iterations 0
steam min/max T 384.9371881 - 384.9371881
water min/max T 378.305761 - 378.305761
diagonal:  Solving for p_rgh, Initial residual = 0, Final residual = 0, No Iterations 0
PIMPLE: Iteration 4
MULES: Solving for alpha.steam
MULES: Solving for alpha.water
steam fraction, min, max = 0.990022098 0.990022098 0.990022098
water fraction, min, max = 0.009977901953 0.009977901953 0.009977901953
Phase-sum volume fraction, min, max = 1 1 1
MULES: Solving for alpha.steam
MULES: Solving for alpha.water
steam fraction, min, max = 0.9900270933 0.9900270933 0.9900270933
water fraction, min, max = 0.009972906718 0.009972906718 0.009972906718
Phase-sum volume fraction, min, max = 1 1 1
MULES: Solving for alpha.steam
MULES: Solving for alpha.water
steam fraction, min, max = 0.990032086 0.990032086 0.990032086
water fraction, min, max = 0.009967913983 0.009967913983 0.009967913983
Phase-sum volume fraction, min, max = 1 1 1
Constructing momentum equations
thermalPhaseChange:Tsat.steam_water: min = 372.76, mean = 372.76, max = 372.76
thermalPhaseChange:Tf.steam_water: min = 372.76, mean = 372.76, max = 372.76
thermalPhaseChange:dmdtf.steam_water: min = 3.075746265, mean = 3.075746265, max = 3.075746265, integral = 3.075746265
diagonal:  Solving for h.steam, Initial residual = 0, Final residual = 0, No Iterations 0
diagonal:  Solving for e.water, Initial residual = 0, Final residual = 0, No Iterations 0
steam min/max T 384.8731461 - 384.8731461
water min/max T 378.3057586 - 378.3057586
diagonal:  Solving for p_rgh, Initial residual = 0, Final residual = 0, No Iterations 0
PIMPLE: Iteration 5
MULES: Solving for alpha.steam
MULES: Solving for alpha.water
steam fraction, min, max = 0.9900220968 0.9900220968 0.9900220968
water fraction, min, max = 0.009977903214 0.009977903214 0.009977903214
Phase-sum volume fraction, min, max = 1 1 1
MULES: Solving for alpha.steam
MULES: Solving for alpha.water
steam fraction, min, max = 0.9900270908 0.9900270908 0.9900270908
water fraction, min, max = 0.009972909239 0.009972909239 0.009972909239
Phase-sum volume fraction, min, max = 1 1 1
MULES: Solving for alpha.steam
MULES: Solving for alpha.water
steam fraction, min, max = 0.9900320822 0.9900320822 0.9900320822
water fraction, min, max = 0.009967917763 0.009967917763 0.009967917763
Phase-sum volume fraction, min, max = 1 1 1
Constructing momentum equations
thermalPhaseChange:Tsat.steam_water: min = 372.76, mean = 372.76, max = 372.76
thermalPhaseChange:Tf.steam_water: min = 372.76, mean = 372.76, max = 372.76
thermalPhaseChange:dmdtf.steam_water: min = 3.075595039, mean = 3.075595039, max = 3.075595039, integral = 3.075595039
diagonal:  Solving for h.steam, Initial residual = 0, Final residual = 0, No Iterations 0
diagonal:  Solving for e.water, Initial residual = 0, Final residual = 0, No Iterations 0
steam min/max T 384.8586959 - 384.8586959
water min/max T 378.305758 - 378.305758
diagonal:  Solving for p_rgh, Initial residual = 0, Final residual = 0, No Iterations 0
ExecutionTime = 0.207702 s  ClockTime = 1 s

Courant Number mean: 0 max: 0
Time = 0.015s

PIMPLE: Iteration 1
MULES: Solving for alpha.steam
MULES: Solving for alpha.water
steam fraction, min, max = 0.990037071 0.990037071 0.990037071
water fraction, min, max = 0.009962929033 0.009962929033 0.009962929033
Phase-sum volume fraction, min, max = 1 1 1
MULES: Solving for alpha.steam
MULES: Solving for alpha.water
steam fraction, min, max = 0.9900420572 0.9900420572 0.9900420572
water fraction, min, max = 0.009957942799 0.009957942799 0.009957942799
Phase-sum volume fraction, min, max = 1 1 1
MULES: Solving for alpha.steam
MULES: Solving for alpha.water
steam fraction, min, max = 0.9900470409 0.9900470409 0.9900470409
water fraction, min, max = 0.009952959061 0.009952959061 0.009952959061
Phase-sum volume fraction, min, max = 1 1 1
Constructing momentum equations
thermalPhaseChange:Tsat.steam_water: min = 372.76, mean = 372.76, max = 372.76
thermalPhaseChange:Tf.steam_water: min = 372.76, mean = 372.76, max = 372.76
thermalPhaseChange:dmdtf.steam_water: min = 3.070945158, mean = 3.070945158, max = 3.070945158, integral = 3.070945158
diagonal:  Solving for h.steam, Initial residual = 0, Final residual = 0, No Iterations 0
diagonal:  Solving for e.water, Initial residual = 0, Final residual = 0, No Iterations 0
steam min/max T 386.8601618 - 386.8601618
water min/max T 377.6140879 - 377.6140879
diagonal:  Solving for p_rgh, Initial residual = 0, Final residual = 0, No Iterations 0
PIMPLE: Iteration 2
MULES: Solving for alpha.steam
MULES: Solving for alpha.water
steam fraction, min, max = 0.9900370709 0.9900370709 0.9900370709
water fraction, min, max = 0.009962929088 0.009962929088 0.009962929088
Phase-sum volume fraction, min, max = 1 1 1
MULES: Solving for alpha.steam
MULES: Solving for alpha.water
steam fraction, min, max = 0.9900420571 0.9900420571 0.9900420571
water fraction, min, max = 0.00995794291 0.00995794291 0.00995794291
Phase-sum volume fraction, min, max = 1 1 1
MULES: Solving for alpha.steam
MULES: Solving for alpha.water
steam fraction, min, max = 0.9900470408 0.9900470408 0.9900470408
water fraction, min, max = 0.009952959228 0.009952959228 0.009952959228
Phase-sum volume fraction, min, max = 1 1 1
Constructing momentum equations
thermalPhaseChange:Tsat.steam_water: min = 372.76, mean = 372.76, max = 372.76
thermalPhaseChange:Tf.steam_water: min = 372.76, mean = 372.76, max = 372.76
thermalPhaseChange:dmdtf.steam_water: min = 2.696206095, mean = 2.696206095, max = 2.696206095, integral = 2.696206095
diagonal:  Solving for h.steam, Initial residual = 0, Final residual = 0, No Iterations 0
diagonal:  Solving for e.water, Initial residual = 0, Final residual = 0, No Iterations 0
steam min/max T 386.8893592 - 386.8893592
water min/max T 377.612416 - 377.612416
diagonal:  Solving for p_rgh, Initial residual = 0, Final residual = 0, No Iterations 0
PIMPLE: Iteration 3
MULES: Solving for alpha.steam
MULES: Solving for alpha.water
steam fraction, min, max = 0.9900364624 0.9900364624 0.9900364624
water fraction, min, max = 0.009963537575 0.009963537575 0.009963537575
Phase-sum volume fraction, min, max = 1 1 1
MULES: Solving for alpha.steam
MULES: Solving for alpha.water
steam fraction, min, max = 0.9900408407 0.9900408407 0.9900408407
water fraction, min, max = 0.009959159312 0.009959159312 0.009959159312
Phase-sum volume fraction, min, max = 1 1 1
MULES: Solving for alpha.steam
MULES: Solving for alpha.water
steam fraction, min, max = 0.990045217 0.990045217 0.990045217
water fraction, min, max = 0.009954782973 0.009954782973 0.009954782973
Phase-sum volume fraction, min, max = 1 1 1
Constructing momentum equations
thermalPhaseChange:Tsat.steam_water: min = 372.76, mean = 372.76, max = 372.76
thermalPhaseChange:Tf.steam_water: min = 372.76, mean = 372.76, max = 372.76
thermalPhaseChange:dmdtf.steam_water: min = 2.695851115, mean = 2.695851115, max = 2.695851115, integral = 2.695851115
diagonal:  Solving for h.steam, Initial residual = 0, Final residual = 0, No Iterations 0
diagonal:  Solving for e.water, Initial residual = 0, Final residual = 0, No Iterations 0
steam min/max T 386.6377737 - 386.6377737
water min/max T 377.6122972 - 377.6122972
diagonal:  Solving for p_rgh, Initial residual = 0, Final residual = 0, No Iterations 0
PIMPLE: Iteration 4
MULES: Solving for alpha.steam
MULES: Solving for alpha.water
steam fraction, min, max = 0.990036461 0.990036461 0.990036461
water fraction, min, max = 0.009963538954 0.009963538954 0.009963538954
Phase-sum volume fraction, min, max = 1 1 1
MULES: Solving for alpha.steam
MULES: Solving for alpha.water
steam fraction, min, max = 0.9900408379 0.9900408379 0.9900408379
water fraction, min, max = 0.009959162068 0.009959162068 0.009959162068
Phase-sum volume fraction, min, max = 1 1 1
MULES: Solving for alpha.steam
MULES: Solving for alpha.water
steam fraction, min, max = 0.9900452129 0.9900452129 0.9900452129
water fraction, min, max = 0.009954787105 0.009954787105 0.009954787105
Phase-sum volume fraction, min, max = 1 1 1
Constructing momentum equations
thermalPhaseChange:Tsat.steam_water: min = 372.76, mean = 372.76, max = 372.76
thermalPhaseChange:Tf.steam_water: min = 372.76, mean = 372.76, max = 372.76
thermalPhaseChange:dmdtf.steam_water: min = 2.695194371, mean = 2.695194371, max = 2.695194371, integral = 2.695194371
diagonal:  Solving for h.steam, Initial residual = 0, Final residual = 0, No Iterations 0
diagonal:  Solving for e.water, Initial residual = 0, Final residual = 0, No Iterations 0
steam min/max T 386.5828809 - 386.5828809
water min/max T 377.6122954 - 377.6122954
diagonal:  Solving for p_rgh, Initial residual = 0, Final residual = 0, No Iterations 0
PIMPLE: Iteration 5
MULES: Solving for alpha.steam
MULES: Solving for alpha.water
steam fraction, min, max = 0.99003646 0.99003646 0.99003646
water fraction, min, max = 0.009963540022 0.009963540022 0.009963540022
Phase-sum volume fraction, min, max = 1 1 1
MULES: Solving for alpha.steam
MULES: Solving for alpha.water
steam fraction, min, max = 0.9900408358 0.9900408358 0.9900408358
water fraction, min, max = 0.009959164203 0.009959164203 0.009959164203
Phase-sum volume fraction, min, max = 1 1 1
MULES: Solving for alpha.steam
MULES: Solving for alpha.water
steam fraction, min, max = 0.9900452097 0.9900452097 0.9900452097
water fraction, min, max = 0.009954790306 0.009954790306 0.009954790306
Phase-sum volume fraction, min, max = 1 1 1
Constructing momentum equations
thermalPhaseChange:Tsat.steam_water: min = 372.76, mean = 372.76, max = 372.76
thermalPhaseChange:Tf.steam_water: min = 372.76, mean = 372.76, max = 372.76
thermalPhaseChange:dmdtf.steam_water: min = 2.695064967, mean = 2.695064967, max = 2.695064967, integral = 2.695064967
diagonal:  Solving for h.steam, Initial residual = 0, Final residual = 0, No Iterations 0
diagonal:  Solving for e.water, Initial residual = 0, Final residual = 0, No Iterations 0
steam min/max T 386.570504 - 386.570504
water min/max T 377.6122949 - 377.6122949
diagonal:  Solving for p_rgh, Initial residual = 0, Final residual = 0, No Iterations 0
ExecutionTime = 0.222136 s  ClockTime = 1 s

Courant Number mean: 0 max: 0
Time = 0.02s

PIMPLE: Iteration 1
MULES: Solving for alpha.steam
MULES: Solving for alpha.water
steam fraction, min, max = 0.9900495815 0.9900495815 0.9900495815
water fraction, min, max = 0.009950418542 0.009950418542 0.009950418542
Phase-sum volume fraction, min, max = 1 1 1
MULES: Solving for alpha.steam
MULES: Solving for alpha.water
steam fraction, min, max = 0.9900539513 0.9900539513 0.9900539513
water fraction, min, max = 0.009946048697 0.009946048697 0.009946048697
Phase-sum volume fraction, min, max = 1 1 1
MULES: Solving for alpha.steam
MULES: Solving for alpha.water
steam fraction, min, max = 0.9900583192 0.9900583192 0.9900583192
water fraction, min, max = 0.009941680771 0.009941680771 0.009941680771
Phase-sum volume fraction, min, max = 1 1 1
Constructing momentum equations
thermalPhaseChange:Tsat.steam_water: min = 372.76, mean = 372.76, max = 372.76
thermalPhaseChange:Tf.steam_water: min = 372.76, mean = 372.76, max = 372.76
thermalPhaseChange:dmdtf.steam_water: min = 2.691486439, mean = 2.691486439, max = 2.691486439, integral = 2.691486439
diagonal:  Solving for h.steam, Initial residual = 0, Final residual = 0, No Iterations 0
diagonal:  Solving for e.water, Initial residual = 0, Final residual = 0, No Iterations 0
steam min/max T 388.1736849 - 388.1736849
water min/max T 377.0062402 - 377.0062402
diagonal:  Solving for p_rgh, Initial residual = 0, Final residual = 0, No Iterations 0
PIMPLE: Iteration 2
MULES: Solving for alpha.steam
MULES: Solving for alpha.water
steam fraction, min, max = 0.9900495814 0.9900495814 0.9900495814
water fraction, min, max = 0.009950418589 0.009950418589 0.009950418589
Phase-sum volume fraction, min, max = 1 1 1
MULES: Solving for alpha.steam
MULES: Solving for alpha.water
steam fraction, min, max = 0.9900539512 0.9900539512 0.9900539512
water fraction, min, max = 0.009946048792 0.009946048792 0.009946048792
Phase-sum volume fraction, min, max = 1 1 1
MULES: Solving for alpha.steam
MULES: Solving for alpha.water
steam fraction, min, max = 0.9900583191 0.9900583191 0.9900583191
water fraction, min, max = 0.009941680914 0.009941680914 0.009941680914
Phase-sum volume fraction, min, max = 1 1 1
Constructing momentum equations
thermalPhaseChange:Tsat.steam_water: min = 372.76, mean = 372.76, max = 372.76
thermalPhaseChange:Tf.steam_water: min = 372.76, mean = 372.76, max = 372.76
thermalPhaseChange:dmdtf.steam_water: min = 2.363149886, mean = 2.363149886, max = 2.363149886, integral = 2.363149886
diagonal:  Solving for h.steam, Initial residual = 0, Final residual = 0, No Iterations 0
diagonal:  Solving for e.water, Initial residual = 0, Final residual = 0, No Iterations 0
steam min/max T 388.2032361 - 388.2032361
water min/max T 377.0049562 - 377.0049562
diagonal:  Solving for p_rgh, Initial residual = 0, Final residual = 0, No Iterations 0
PIMPLE: Iteration 3
MULES: Solving for alpha.steam
MULES: Solving for alpha.water
steam fraction, min, max = 0.9900490483 0.9900490483 0.9900490483
water fraction, min, max = 0.009950951693 0.009950951693 0.009950951693
Phase-sum volume fraction, min, max = 1 1 1
MULES: Solving for alpha.steam
MULES: Solving for alpha.water
steam fraction, min, max = 0.9900528854 0.9900528854 0.9900528854
water fraction, min, max = 0.00994711456 0.00994711456 0.00994711456
Phase-sum volume fraction, min, max = 1 1 1
MULES: Solving for alpha.steam
MULES: Solving for alpha.water
steam fraction, min, max = 0.9900567211 0.9900567211 0.9900567211
water fraction, min, max = 0.009943278906 0.009943278906 0.009943278906
Phase-sum volume fraction, min, max = 1 1 1
Constructing momentum equations
thermalPhaseChange:Tsat.steam_water: min = 372.76, mean = 372.76, max = 372.76
thermalPhaseChange:Tf.steam_water: min = 372.76, mean = 372.76, max = 372.76
thermalPhaseChange:dmdtf.steam_water: min = 2.362895258, mean = 2.362895258, max = 2.362895258, integral = 2.362895258
diagonal:  Solving for h.steam, Initial residual = 0, Final residual = 0, No Iterations 0
diagonal:  Solving for e.water, Initial residual = 0, Final residual = 0, No Iterations 0
steam min/max T 387.9871065 - 387.9871065
water min/max T 377.0048648 - 377.0048648
diagonal:  Solving for p_rgh, Initial residual = 0, Final residual = 0, No Iterations 0
PIMPLE: Iteration 4
MULES: Solving for alpha.steam
MULES: Solving for alpha.water
steam fraction, min, max = 0.9900490473 0.9900490473 0.9900490473
water fraction, min, max = 0.009950952723 0.009950952723 0.009950952723
Phase-sum volume fraction, min, max = 1 1 1
MULES: Solving for alpha.steam
MULES: Solving for alpha.water
steam fraction, min, max = 0.9900528834 0.9900528834 0.9900528834
water fraction, min, max = 0.009947116619 0.009947116619 0.009947116619
Phase-sum volume fraction, min, max = 1 1 1
MULES: Solving for alpha.steam
MULES: Solving for alpha.water
steam fraction, min, max = 0.990056718 0.990056718 0.990056718
water fraction, min, max = 0.009943281994 0.009943281994 0.009943281994
Phase-sum volume fraction, min, max = 1 1 1
Constructing momentum equations
thermalPhaseChange:Tsat.steam_water: min = 372.76, mean = 372.76, max = 372.76
thermalPhaseChange:Tf.steam_water: min = 372.76, mean = 372.76, max = 372.76
thermalPhaseChange:dmdtf.steam_water: min = 2.362337326, mean = 2.362337326, max = 2.362337326, integral = 2.362337326
diagonal:  Solving for h.steam, Initial residual = 0, Final residual = 0, No Iterations 0
diagonal:  Solving for e.water, Initial residual = 0, Final residual = 0, No Iterations 0
steam min/max T 387.9399719 - 387.9399719
water min/max T 377.0048635 - 377.0048635
diagonal:  Solving for p_rgh, Initial residual = 0, Final residual = 0, No Iterations 0
PIMPLE: Iteration 5
MULES: Solving for alpha.steam
MULES: Solving for alpha.water
steam fraction, min, max = 0.9900490464 0.9900490464 0.9900490464
water fraction, min, max = 0.00995095363 0.00995095363 0.00995095363
Phase-sum volume fraction, min, max = 1 1 1
MULES: Solving for alpha.steam
MULES: Solving for alpha.water
steam fraction, min, max = 0.9900528816 0.9900528816 0.9900528816
water fraction, min, max = 0.009947118432 0.009947118432 0.009947118432
Phase-sum volume fraction, min, max = 1 1 1
MULES: Solving for alpha.steam
MULES: Solving for alpha.water
steam fraction, min, max = 0.9900567153 0.9900567153 0.9900567153
water fraction, min, max = 0.009943284713 0.009943284713 0.009943284713
Phase-sum volume fraction, min, max = 1 1 1
Constructing momentum equations
thermalPhaseChange:Tsat.steam_water: min = 372.76, mean = 372.76, max = 372.76
thermalPhaseChange:Tf.steam_water: min = 372.76, mean = 372.76, max = 372.76
thermalPhaseChange:dmdtf.steam_water: min = 2.362226371, mean = 2.362226371, max = 2.362226371, integral = 2.362226371
diagonal:  Solving for h.steam, Initial residual = 0, Final residual = 0, No Iterations 0
diagonal:  Solving for e.water, Initial residual = 0, Final residual = 0, No Iterations 0
steam min/max T 387.9293509 - 387.9293509
water min/max T 377.0048632 - 377.0048632
diagonal:  Solving for p_rgh, Initial residual = 0, Final residual = 0, No Iterations 0
ExecutionTime = 0.234412 s  ClockTime = 1 s

Courant Number mean: 0 max: 0
Time = 0.025s

PIMPLE: Iteration 1
MULES: Solving for alpha.steam
MULES: Solving for alpha.water
steam fraction, min, max = 0.9900605473 0.9900605473 0.9900605473
water fraction, min, max = 0.009939452652 0.009939452652 0.009939452652
Phase-sum volume fraction, min, max = 1 1 1
MULES: Solving for alpha.steam
MULES: Solving for alpha.water
steam fraction, min, max = 0.9900643779 0.9900643779 0.9900643779
water fraction, min, max = 0.009935622068 0.009935622068 0.009935622068
Phase-sum volume fraction, min, max = 1 1 1
MULES: Solving for alpha.steam
MULES: Solving for alpha.water
steam fraction, min, max = 0.990068207 0.990068207 0.990068207
water fraction, min, max = 0.00993179296 0.00993179296 0.00993179296
Phase-sum volume fraction, min, max = 1 1 1
Constructing momentum equations
thermalPhaseChange:Tsat.steam_water: min = 372.76, mean = 372.76, max = 372.76
thermalPhaseChange:Tf.steam_water: min = 372.76, mean = 372.76, max = 372.76
thermalPhaseChange:dmdtf.steam_water: min = 2.359471119, mean = 2.359471119, max = 2.359471119, integral = 2.359471119
diagonal:  Solving for h.steam, Initial residual = 0, Final residual = 0, No Iterations 0
diagonal:  Solving for e.water, Initial residual = 0, Final residual = 0, No Iterations 0
steam min/max T 389.2101889 - 389.2101889
water min/max T 376.4740066 - 376.4740066
diagonal:  Solving for p_rgh, Initial residual = 0, Final residual = 0, No Iterations 0
PIMPLE: Iteration 2
MULES: Solving for alpha.steam
MULES: Solving for alpha.water
steam fraction, min, max = 0.9900605473 0.9900605473 0.9900605473
water fraction, min, max = 0.009939452693 0.009939452693 0.009939452693
Phase-sum volume fraction, min, max = 1 1 1
MULES: Solving for alpha.steam
MULES: Solving for alpha.water
steam fraction, min, max = 0.9900643779 0.9900643779 0.9900643779
water fraction, min, max = 0.009935622149 0.009935622149 0.009935622149
Phase-sum volume fraction, min, max = 1 1 1
MULES: Solving for alpha.steam
MULES: Solving for alpha.water
steam fraction, min, max = 0.9900682069 0.9900682069 0.9900682069
water fraction, min, max = 0.009931793082 0.009931793082 0.009931793082
Phase-sum volume fraction, min, max = 1 1 1
Constructing momentum equations
thermalPhaseChange:Tsat.steam_water: min = 372.76, mean = 372.76, max = 372.76
thermalPhaseChange:Tf.steam_water: min = 372.76, mean = 372.76, max = 372.76
thermalPhaseChange:dmdtf.steam_water: min = 2.071869315, mean = 2.071869315, max = 2.071869315, integral = 2.071869315
diagonal:  Solving for h.steam, Initial residual = 0, Final residual = 0, No Iterations 0
diagonal:  Solving for e.water, Initial residual = 0, Final residual = 0, No Iterations 0
steam min/max T 389.2387938 - 389.2387938
water min/max T 376.4730211 - 376.4730211
diagonal:  Solving for p_rgh, Initial residual = 0, Final residual = 0, No Iterations 0
PIMPLE: Iteration 3
MULES: Solving for alpha.steam
MULES: Solving for alpha.water
steam fraction, min, max = 0.9900600804 0.9900600804 0.9900600804
water fraction, min, max = 0.009939919629 0.009939919629 0.009939919629
Phase-sum volume fraction, min, max = 1 1 1
MULES: Solving for alpha.steam
MULES: Solving for alpha.water
steam fraction, min, max = 0.9900634443 0.9900634443 0.9900634443
water fraction, min, max = 0.009936555684 0.009936555684 0.009936555684
Phase-sum volume fraction, min, max = 1 1 1
MULES: Solving for alpha.steam
MULES: Solving for alpha.water
steam fraction, min, max = 0.9900668071 0.9900668071 0.9900668071
water fraction, min, max = 0.009933192878 0.009933192878 0.009933192878
Phase-sum volume fraction, min, max = 1 1 1
Constructing momentum equations
thermalPhaseChange:Tsat.steam_water: min = 372.76, mean = 372.76, max = 372.76
thermalPhaseChange:Tf.steam_water: min = 372.76, mean = 372.76, max = 372.76
thermalPhaseChange:dmdtf.steam_water: min = 2.071688725, mean = 2.071688725, max = 2.071688725, integral = 2.071688725
diagonal:  Solving for h.steam, Initial residual = 0, Final residual = 0, No Iterations 0
diagonal:  Solving for e.water, Initial residual = 0, Final residual = 0, No Iterations 0
steam min/max T 389.0526776 - 389.0526776
water min/max T 376.4729507 - 376.4729507
diagonal:  Solving for p_rgh, Initial residual = 0, Final residual = 0, No Iterations 0
PIMPLE: Iteration 4
MULES: Solving for alpha.steam
MULES: Solving for alpha.water
steam fraction, min, max = 0.9900600796 0.9900600796 0.9900600796
water fraction, min, max = 0.009939920396 0.009939920396 0.009939920396
Phase-sum volume fraction, min, max = 1 1 1
MULES: Solving for alpha.steam
MULES: Solving for alpha.water
steam fraction, min, max = 0.9900634428 0.9900634428 0.9900634428
water fraction, min, max = 0.009936557218 0.009936557218 0.009936557218
Phase-sum volume fraction, min, max = 1 1 1
MULES: Solving for alpha.steam
MULES: Solving for alpha.water
steam fraction, min, max = 0.9900668048 0.9900668048 0.9900668048
water fraction, min, max = 0.009933195178 0.009933195178 0.009933195178
Phase-sum volume fraction, min, max = 1 1 1
Constructing momentum equations
thermalPhaseChange:Tsat.steam_water: min = 372.76, mean = 372.76, max = 372.76
thermalPhaseChange:Tf.steam_water: min = 372.76, mean = 372.76, max = 372.76
thermalPhaseChange:dmdtf.steam_water: min = 2.071213169, mean = 2.071213169, max = 2.071213169, integral = 2.071213169
diagonal:  Solving for h.steam, Initial residual = 0, Final residual = 0, No Iterations 0
diagonal:  Solving for e.water, Initial residual = 0, Final residual = 0, No Iterations 0
steam min/max T 389.0121047 - 389.0121047
water min/max T 376.4729497 - 376.4729497
diagonal:  Solving for p_rgh, Initial residual = 0, Final residual = 0, No Iterations 0
PIMPLE: Iteration 5
MULES: Solving for alpha.steam
MULES: Solving for alpha.water
steam fraction, min, max = 0.9900600788 0.9900600788 0.9900600788
water fraction, min, max = 0.009939921169 0.009939921169 0.009939921169
Phase-sum volume fraction, min, max = 1 1 1
MULES: Solving for alpha.steam
MULES: Solving for alpha.water
steam fraction, min, max = 0.9900634412 0.9900634412 0.9900634412
water fraction, min, max = 0.009936558763 0.009936558763 0.009936558763
Phase-sum volume fraction, min, max = 1 1 1
MULES: Solving for alpha.steam
MULES: Solving for alpha.water
steam fraction, min, max = 0.9900668025 0.9900668025 0.9900668025
water fraction, min, max = 0.009933197495 0.009933197495 0.009933197495
Phase-sum volume fraction, min, max = 1 1 1
Constructing momentum equations
thermalPhaseChange:Tsat.steam_water: min = 372.76, mean = 372.76, max = 372.76
thermalPhaseChange:Tf.steam_water: min = 372.76, mean = 372.76, max = 372.76
thermalPhaseChange:dmdtf.steam_water: min = 2.071117777, mean = 2.071117777, max = 2.071117777, integral = 2.071117777
diagonal:  Solving for h.steam, Initial residual = 0, Final residual = 0, No Iterations 0
diagonal:  Solving for e.water, Initial residual = 0, Final residual = 0, No Iterations 0
steam min/max T 389.0029673 - 389.0029673
water min/max T 376.4729495 - 376.4729495
diagonal:  Solving for p_rgh, Initial residual = 0, Final residual = 0, No Iterations 0
ExecutionTime = 0.246944 s  ClockTime = 1 s

Courant Number mean: 0 max: 0
Time = 0.03s

PIMPLE: Iteration 1
MULES: Solving for alpha.steam
MULES: Solving for alpha.water
steam fraction, min, max = 0.9900701625 0.9900701625 0.9900701625
water fraction, min, max = 0.009929837519 0.009929837519 0.009929837519
Phase-sum volume fraction, min, max = 1 1 1
MULES: Solving for alpha.steam
MULES: Solving for alpha.water
steam fraction, min, max = 0.9900735213 0.9900735213 0.9900735213
water fraction, min, max = 0.009926478679 0.009926478679 0.009926478679
Phase-sum volume fraction, min, max = 1 1 1
MULES: Solving for alpha.steam
MULES: Solving for alpha.water
steam fraction, min, max = 0.990076879 0.990076879 0.990076879
water fraction, min, max = 0.009923120976 0.009923120976 0.009923120976
Phase-sum volume fraction, min, max = 1 1 1
Constructing momentum equations
thermalPhaseChange:Tsat.steam_water: min = 372.76, mean = 372.76, max = 372.76
thermalPhaseChange:Tf.steam_water: min = 372.76, mean = 372.76, max = 372.76
thermalPhaseChange:dmdtf.steam_water: min = 2.068995175, mean = 2.068995175, max = 2.068995175, integral = 2.068995175
diagonal:  Solving for h.steam, Initial residual = 0, Final residual = 0, No Iterations 0
diagonal:  Solving for e.water, Initial residual = 0, Final residual = 0, No Iterations 0
steam min/max T 390.0204277 - 390.0204277
water min/max T 376.0080991 - 376.0080991
diagonal:  Solving for p_rgh, Initial residual = 0, Final residual = 0, No Iterations 0
PIMPLE: Iteration 2
MULES: Solving for alpha.steam
MULES: Solving for alpha.water
steam fraction, min, max = 0.9900701624 0.9900701624 0.9900701624
water fraction, min, max = 0.009929837554 0.009929837554 0.009929837554
Phase-sum volume fraction, min, max = 1 1 1
MULES: Solving for alpha.steam
MULES: Solving for alpha.water
steam fraction, min, max = 0.9900735213 0.9900735213 0.9900735213
water fraction, min, max = 0.009926478749 0.009926478749 0.009926478749
Phase-sum volume fraction, min, max = 1 1 1
MULES: Solving for alpha.steam
MULES: Solving for alpha.water
steam fraction, min, max = 0.9900768789 0.9900768789 0.9900768789
water fraction, min, max = 0.009923121081 0.009923121081 0.009923121081
Phase-sum volume fraction, min, max = 1 1 1
Constructing momentum equations
thermalPhaseChange:Tsat.steam_water: min = 372.76, mean = 372.76, max = 372.76
thermalPhaseChange:Tf.steam_water: min = 372.76, mean = 372.76, max = 372.76
thermalPhaseChange:dmdtf.steam_water: min = 1.81712846, mean = 1.81712846, max = 1.81712846, integral = 1.81712846
diagonal:  Solving for h.steam, Initial residual = 0, Final residual = 0, No Iterations 0
diagonal:  Solving for e.water, Initial residual = 0, Final residual = 0, No Iterations 0
steam min/max T 390.0473543 - 390.0473543
water min/max T 376.0073429 - 376.0073429
diagonal:  Solving for p_rgh, Initial residual = 0, Final residual = 0, No Iterations 0
PIMPLE: Iteration 3
MULES: Solving for alpha.steam
MULES: Solving for alpha.water
steam fraction, min, max = 0.9900697535 0.9900697535 0.9900697535
water fraction, min, max = 0.009930246451 0.009930246451 0.009930246451
Phase-sum volume fraction, min, max = 1 1 1
MULES: Solving for alpha.steam
MULES: Solving for alpha.water
steam fraction, min, max = 0.9900727037 0.9900727037 0.9900727037
water fraction, min, max = 0.009927296284 0.009927296284 0.009927296284
Phase-sum volume fraction, min, max = 1 1 1
MULES: Solving for alpha.steam
MULES: Solving for alpha.water
steam fraction, min, max = 0.990075653 0.990075653 0.990075653
water fraction, min, max = 0.009924346993 0.009924346993 0.009924346993
Phase-sum volume fraction, min, max = 1 1 1
Constructing momentum equations
thermalPhaseChange:Tsat.steam_water: min = 372.76, mean = 372.76, max = 372.76
thermalPhaseChange:Tf.steam_water: min = 372.76, mean = 372.76, max = 372.76
thermalPhaseChange:dmdtf.steam_water: min = 1.817002331, mean = 1.817002331, max = 1.817002331, integral = 1.817002331
diagonal:  Solving for h.steam, Initial residual = 0, Final residual = 0, No Iterations 0
diagonal:  Solving for e.water, Initial residual = 0, Final residual = 0, No Iterations 0
steam min/max T 389.8867573 - 389.8867573
water min/max T 376.0072887 - 376.0072887
diagonal:  Solving for p_rgh, Initial residual = 0, Final residual = 0, No Iterations 0
PIMPLE: Iteration 4
MULES: Solving for alpha.steam
MULES: Solving for alpha.water
steam fraction, min, max = 0.990069753 0.990069753 0.990069753
water fraction, min, max = 0.00993024702 0.00993024702 0.00993024702
Phase-sum volume fraction, min, max = 1 1 1
MULES: Solving for alpha.steam
MULES: Solving for alpha.water
steam fraction, min, max = 0.9900727026 0.9900727026 0.9900727026
water fraction, min, max = 0.009927297422 0.009927297422 0.009927297422
Phase-sum volume fraction, min, max = 1 1 1
MULES: Solving for alpha.steam
MULES: Solving for alpha.water
steam fraction, min, max = 0.9900756513 0.9900756513 0.9900756513
water fraction, min, max = 0.009924348699 0.009924348699 0.009924348699
Phase-sum volume fraction, min, max = 1 1 1
Constructing momentum equations
thermalPhaseChange:Tsat.steam_water: min = 372.76, mean = 372.76, max = 372.76
thermalPhaseChange:Tf.steam_water: min = 372.76, mean = 372.76, max = 372.76
thermalPhaseChange:dmdtf.steam_water: min = 1.816595799, mean = 1.816595799, max = 1.816595799, integral = 1.816595799
diagonal:  Solving for h.steam, Initial residual = 0, Final residual = 0, No Iterations 0
diagonal:  Solving for e.water, Initial residual = 0, Final residual = 0, No Iterations 0
steam min/max T 389.8517594 - 389.8517594
water min/max T 376.007288 - 376.007288
diagonal:  Solving for p_rgh, Initial residual = 0, Final residual = 0, No Iterations 0
PIMPLE: Iteration 5
MULES: Solving for alpha.steam
MULES: Solving for alpha.water
steam fraction, min, max = 0.9900697523 0.9900697523 0.9900697523
water fraction, min, max = 0.00993024768 0.00993024768 0.00993024768
Phase-sum volume fraction, min, max = 1 1 1
MULES: Solving for alpha.steam
MULES: Solving for alpha.water
steam fraction, min, max = 0.9900727013 0.9900727013 0.9900727013
water fraction, min, max = 0.009927298742 0.009927298742 0.009927298742
Phase-sum volume fraction, min, max = 1 1 1
MULES: Solving for alpha.steam
MULES: Solving for alpha.water
steam fraction, min, max = 0.9900756493 0.9900756493 0.9900756493
water fraction, min, max = 0.00992435068 0.00992435068 0.00992435068
Phase-sum volume fraction, min, max = 1 1 1
Constructing momentum equations
thermalPhaseChange:Tsat.steam_water: min = 372.76, mean = 372.76, max = 372.76
thermalPhaseChange:Tf.steam_water: min = 372.76, mean = 372.76, max = 372.76
thermalPhaseChange:dmdtf.steam_water: min = 1.816513602, mean = 1.816513602, max = 1.816513602, integral = 1.816513602
diagonal:  Solving for h.steam, Initial residual = 0, Final residual = 0, No Iterations 0
diagonal:  Solving for e.water, Initial residual = 0, Final residual = 0, No Iterations 0
steam min/max T 389.8438814 - 389.8438814
water min/max T 376.0072878 - 376.0072878
diagonal:  Solving for p_rgh, Initial residual = 0, Final residual = 0, No Iterations 0
ExecutionTime = 0.267736 s  ClockTime = 1 s

Courant Number mean: 0 max: 0
Time = 0.035s

PIMPLE: Iteration 1
MULES: Solving for alpha.steam
MULES: Solving for alpha.water
steam fraction, min, max = 0.9900785964 0.9900785964 0.9900785964
water fraction, min, max = 0.009921403626 0.009921403626 0.009921403626
Phase-sum volume fraction, min, max = 1 1 1
MULES: Solving for alpha.steam
MULES: Solving for alpha.water
steam fraction, min, max = 0.9900815426 0.9900815426 0.9900815426
water fraction, min, max = 0.009918457448 0.009918457448 0.009918457448
Phase-sum volume fraction, min, max = 1 1 1
MULES: Solving for alpha.steam
MULES: Solving for alpha.water
steam fraction, min, max = 0.9900844879 0.9900844879 0.9900844879
water fraction, min, max = 0.009915512145 0.009915512145 0.009915512145
Phase-sum volume fraction, min, max = 1 1 1
Constructing momentum equations
thermalPhaseChange:Tsat.steam_water: min = 372.76, mean = 372.76, max = 372.76
thermalPhaseChange:Tf.steam_water: min = 372.76, mean = 372.76, max = 372.76
thermalPhaseChange:dmdtf.steam_water: min = 1.814877237, mean = 1.814877237, max = 1.814877237, integral = 1.814877237
diagonal:  Solving for h.steam, Initial residual = 0, Final residual = 0, No Iterations 0
diagonal:  Solving for e.water, Initial residual = 0, Final residual = 0, No Iterations 0
steam min/max T 390.6444312 - 390.6444312
water min/max T 375.6003428 - 375.6003428
diagonal:  Solving for p_rgh, Initial residual = 0, Final residual = 0, No Iterations 0
PIMPLE: Iteration 2
MULES: Solving for alpha.steam
MULES: Solving for alpha.water
steam fraction, min, max = 0.9900785963 0.9900785963 0.9900785963
water fraction, min, max = 0.009921403657 0.009921403657 0.009921403657
Phase-sum volume fraction, min, max = 1 1 1
MULES: Solving for alpha.steam
MULES: Solving for alpha.water
steam fraction, min, max = 0.9900815425 0.9900815425 0.9900815425
water fraction, min, max = 0.009918457509 0.009918457509 0.009918457509
Phase-sum volume fraction, min, max = 1 1 1
MULES: Solving for alpha.steam
MULES: Solving for alpha.water
steam fraction, min, max = 0.9900844878 0.9900844878 0.9900844878
water fraction, min, max = 0.009915512236 0.009915512236 0.009915512236
Phase-sum volume fraction, min, max = 1 1 1
Constructing momentum equations
thermalPhaseChange:Tsat.steam_water: min = 372.76, mean = 372.76, max = 372.76
thermalPhaseChange:Tf.steam_water: min = 372.76, mean = 372.76, max = 372.76
thermalPhaseChange:dmdtf.steam_water: min = 1.594342142, mean = 1.594342142, max = 1.594342142, integral = 1.594342142
diagonal:  Solving for h.steam, Initial residual = 0, Final residual = 0, No Iterations 0
diagonal:  Solving for e.water, Initial residual = 0, Final residual = 0, No Iterations 0
steam min/max T 390.6693102 - 390.6693102
water min/max T 375.5997627 - 375.5997627
diagonal:  Solving for p_rgh, Initial residual = 0, Final residual = 0, No Iterations 0
PIMPLE: Iteration 3
MULES: Solving for alpha.steam
MULES: Solving for alpha.water
steam fraction, min, max = 0.9900782383 0.9900782383 0.9900782383
water fraction, min, max = 0.009921761671 0.009921761671 0.009921761671
Phase-sum volume fraction, min, max = 1 1 1
MULES: Solving for alpha.steam
MULES: Solving for alpha.water
steam fraction, min, max = 0.9900808267 0.9900808267 0.9900808267
water fraction, min, max = 0.009919173338 0.009919173338 0.009919173338
Phase-sum volume fraction, min, max = 1 1 1
MULES: Solving for alpha.steam
MULES: Solving for alpha.water
steam fraction, min, max = 0.9900834143 0.9900834143 0.9900834143
water fraction, min, max = 0.00991658568 0.00991658568 0.00991658568
Phase-sum volume fraction, min, max = 1 1 1
Constructing momentum equations
thermalPhaseChange:Tsat.steam_water: min = 372.76, mean = 372.76, max = 372.76
thermalPhaseChange:Tf.steam_water: min = 372.76, mean = 372.76, max = 372.76
thermalPhaseChange:dmdtf.steam_water: min = 1.594255909, mean = 1.594255909, max = 1.594255909, integral = 1.594255909
diagonal:  Solving for h.steam, Initial residual = 0, Final residual = 0, No Iterations 0
diagonal:  Solving for e.water, Initial residual = 0, Final residual = 0, No Iterations 0
steam min/max T 390.5304929 - 390.5304929
water min/max T 375.5997209 - 375.5997209
diagonal:  Solving for p_rgh, Initial residual = 0, Final residual = 0, No Iterations 0
PIMPLE: Iteration 4
MULES: Solving for alpha.steam
MULES: Solving for alpha.water
steam fraction, min, max = 0.9900782379 0.9900782379 0.9900782379
water fraction, min, max = 0.009921762091 0.009921762091 0.009921762091
Phase-sum volume fraction, min, max = 1 1 1
MULES: Solving for alpha.steam
MULES: Solving for alpha.water
steam fraction, min, max = 0.9900808258 0.9900808258 0.9900808258
water fraction, min, max = 0.009919174178 0.009919174178 0.009919174178
Phase-sum volume fraction, min, max = 1 1 1
MULES: Solving for alpha.steam
MULES: Solving for alpha.water
steam fraction, min, max = 0.9900834131 0.9900834131 0.9900834131
water fraction, min, max = 0.00991658694 0.00991658694 0.00991658694
Phase-sum volume fraction, min, max = 1 1 1
Constructing momentum equations
thermalPhaseChange:Tsat.steam_water: min = 372.76, mean = 372.76, max = 372.76
thermalPhaseChange:Tf.steam_water: min = 372.76, mean = 372.76, max = 372.76
thermalPhaseChange:dmdtf.steam_water: min = 1.593907478, mean = 1.593907478, max = 1.593907478, integral = 1.593907478
diagonal:  Solving for h.steam, Initial residual = 0, Final residual = 0, No Iterations 0
diagonal:  Solving for e.water, Initial residual = 0, Final residual = 0, No Iterations 0
steam min/max T 390.5002501 - 390.5002501
water min/max T 375.5997204 - 375.5997204
diagonal:  Solving for p_rgh, Initial residual = 0, Final residual = 0, No Iterations 0
PIMPLE: Iteration 5
MULES: Solving for alpha.steam
MULES: Solving for alpha.water
steam fraction, min, max = 0.9900782373 0.9900782373 0.9900782373
water fraction, min, max = 0.009921762657 0.009921762657 0.009921762657
Phase-sum volume fraction, min, max = 1 1 1
MULES: Solving for alpha.steam
MULES: Solving for alpha.water
steam fraction, min, max = 0.9900808247 0.9900808247 0.9900808247
water fraction, min, max = 0.00991917531 0.00991917531 0.00991917531
Phase-sum volume fraction, min, max = 1 1 1
MULES: Solving for alpha.steam
MULES: Solving for alpha.water
steam fraction, min, max = 0.9900834114 0.9900834114 0.9900834114
water fraction, min, max = 0.009916588637 0.009916588637 0.009916588637
Phase-sum volume fraction, min, max = 1 1 1
Constructing momentum equations
thermalPhaseChange:Tsat.steam_water: min = 372.76, mean = 372.76, max = 372.76
thermalPhaseChange:Tf.steam_water: min = 372.76, mean = 372.76, max = 372.76
thermalPhaseChange:dmdtf.steam_water: min = 1.593836513, mean = 1.593836513, max = 1.593836513, integral = 1.593836513
diagonal:  Solving for h.steam, Initial residual = 0, Final residual = 0, No Iterations 0
diagonal:  Solving for e.water, Initial residual = 0, Final residual = 0, No Iterations 0
steam min/max T 390.4934453 - 390.4934453
water min/max T 375.5997202 - 375.5997202
diagonal:  Solving for p_rgh, Initial residual = 0, Final residual = 0, No Iterations 0
ExecutionTime = 0.28138 s  ClockTime = 1 s

Courant Number mean: 0 max: 0
Time = 0.04s

PIMPLE: Iteration 1
MULES: Solving for alpha.steam
MULES: Solving for alpha.water
steam fraction, min, max = 0.9900859972 0.9900859972 0.9900859972
water fraction, min, max = 0.009914002754 0.009914002754 0.009914002754
Phase-sum volume fraction, min, max = 1 1 1
MULES: Solving for alpha.steam
MULES: Solving for alpha.water
steam fraction, min, max = 0.9900885825 0.9900885825 0.9900885825
water fraction, min, max = 0.009911417546 0.009911417546 0.009911417546
Phase-sum volume fraction, min, max = 1 1 1
MULES: Solving for alpha.steam
MULES: Solving for alpha.water
steam fraction, min, max = 0.990091167 0.990091167 0.990091167
water fraction, min, max = 0.009908833012 0.009908833012 0.009908833012
Phase-sum volume fraction, min, max = 1 1 1
Constructing momentum equations
thermalPhaseChange:Tsat.steam_water: min = 372.76, mean = 372.76, max = 372.76
thermalPhaseChange:Tf.steam_water: min = 372.76, mean = 372.76, max = 372.76
thermalPhaseChange:dmdtf.steam_water: min = 1.592573957, mean = 1.592573957, max = 1.592573957, integral = 1.592573957
diagonal:  Solving for h.steam, Initial residual = 0, Final residual = 0, No Iterations 0
diagonal:  Solving for e.water, Initial residual = 0, Final residual = 0, No Iterations 0
steam min/max T 391.114181 - 391.114181
water min/max T 375.243549 - 375.243549
diagonal:  Solving for p_rgh, Initial residual = 0, Final residual = 0, No Iterations 0
PIMPLE: Iteration 2
MULES: Solving for alpha.steam
MULES: Solving for alpha.water
steam fraction, min, max = 0.9900859972 0.9900859972 0.9900859972
water fraction, min, max = 0.00991400278 0.00991400278 0.00991400278
Phase-sum volume fraction, min, max = 1 1 1
MULES: Solving for alpha.steam
MULES: Solving for alpha.water
steam fraction, min, max = 0.9900885824 0.9900885824 0.9900885824
water fraction, min, max = 0.009911417598 0.009911417598 0.009911417598
Phase-sum volume fraction, min, max = 1 1 1
MULES: Solving for alpha.steam
MULES: Solving for alpha.water
steam fraction, min, max = 0.9900911669 0.9900911669 0.9900911669
water fraction, min, max = 0.00990883309 0.00990883309 0.00990883309
Phase-sum volume fraction, min, max = 1 1 1
Constructing momentum equations
thermalPhaseChange:Tsat.steam_water: min = 372.76, mean = 372.76, max = 372.76
thermalPhaseChange:Tf.steam_water: min = 372.76, mean = 372.76, max = 372.76
thermalPhaseChange:dmdtf.steam_water: min = 1.399496931, mean = 1.399496931, max = 1.399496931, integral = 1.399496931
diagonal:  Solving for h.steam, Initial residual = 0, Final residual = 0, No Iterations 0
diagonal:  Solving for e.water, Initial residual = 0, Final residual = 0, No Iterations 0
steam min/max T 391.1368723 - 391.1368723
water min/max T 375.2431041 - 375.2431041
diagonal:  Solving for p_rgh, Initial residual = 0, Final residual = 0, No Iterations 0
PIMPLE: Iteration 3
MULES: Solving for alpha.steam
MULES: Solving for alpha.water
steam fraction, min, max = 0.9900856838 0.9900856838 0.9900856838
water fraction, min, max = 0.009914316207 0.009914316207 0.009914316207
Phase-sum volume fraction, min, max = 1 1 1
MULES: Solving for alpha.steam
MULES: Solving for alpha.water
steam fraction, min, max = 0.9900879557 0.9900879557 0.9900879557
water fraction, min, max = 0.009912044298 0.009912044298 0.009912044298
Phase-sum volume fraction, min, max = 1 1 1
MULES: Solving for alpha.steam
MULES: Solving for alpha.water
steam fraction, min, max = 0.9900902271 0.9900902271 0.9900902271
water fraction, min, max = 0.009909772909 0.009909772909 0.009909772909
Phase-sum volume fraction, min, max = 1 1 1
Constructing momentum equations
thermalPhaseChange:Tsat.steam_water: min = 372.76, mean = 372.76, max = 372.76
thermalPhaseChange:Tf.steam_water: min = 372.76, mean = 372.76, max = 372.76
thermalPhaseChange:dmdtf.steam_water: min = 1.399439763, mean = 1.399439763, max = 1.399439763, integral = 1.399439763
diagonal:  Solving for h.steam, Initial residual = 0, Final residual = 0, No Iterations 0
diagonal:  Solving for e.water, Initial residual = 0, Final residual = 0, No Iterations 0
steam min/max T 391.0167026 - 391.0167026
water min/max T 375.2430718 - 375.2430718
diagonal:  Solving for p_rgh, Initial residual = 0, Final residual = 0, No Iterations 0
PIMPLE: Iteration 4
MULES: Solving for alpha.steam
MULES: Solving for alpha.water
steam fraction, min, max = 0.9900856835 0.9900856835 0.9900856835
water fraction, min, max = 0.009914316515 0.009914316515 0.009914316515
Phase-sum volume fraction, min, max = 1 1 1
MULES: Solving for alpha.steam
MULES: Solving for alpha.water
steam fraction, min, max = 0.9900879551 0.9900879551 0.9900879551
water fraction, min, max = 0.009912044914 0.009912044914 0.009912044914
Phase-sum volume fraction, min, max = 1 1 1
MULES: Solving for alpha.steam
MULES: Solving for alpha.water
steam fraction, min, max = 0.9900902262 0.9900902262 0.9900902262
water fraction, min, max = 0.009909773834 0.009909773834 0.009909773834
Phase-sum volume fraction, min, max = 1 1 1
Constructing momentum equations
thermalPhaseChange:Tsat.steam_water: min = 372.76, mean = 372.76, max = 372.76
thermalPhaseChange:Tf.steam_water: min = 372.76, mean = 372.76, max = 372.76
thermalPhaseChange:dmdtf.steam_water: min = 1.399140437, mean = 1.399140437, max = 1.399140437, integral = 1.399140437
diagonal:  Solving for h.steam, Initial residual = 0, Final residual = 0, No Iterations 0
diagonal:  Solving for e.water, Initial residual = 0, Final residual = 0, No Iterations 0
steam min/max T 390.9905289 - 390.9905289
water min/max T 375.2430714 - 375.2430714
diagonal:  Solving for p_rgh, Initial residual = 0, Final residual = 0, No Iterations 0
PIMPLE: Iteration 5
MULES: Solving for alpha.steam
MULES: Solving for alpha.water
steam fraction, min, max = 0.990085683 0.990085683 0.990085683
water fraction, min, max = 0.009914317001 0.009914317001 0.009914317001
Phase-sum volume fraction, min, max = 1 1 1
MULES: Solving for alpha.steam
MULES: Solving for alpha.water
steam fraction, min, max = 0.9900879541 0.9900879541 0.9900879541
water fraction, min, max = 0.009912045886 0.009912045886 0.009912045886
Phase-sum volume fraction, min, max = 1 1 1
MULES: Solving for alpha.steam
MULES: Solving for alpha.water
steam fraction, min, max = 0.9900902247 0.9900902247 0.9900902247
water fraction, min, max = 0.009909775291 0.009909775291 0.009909775291
Phase-sum volume fraction, min, max = 1 1 1
Constructing momentum equations
thermalPhaseChange:Tsat.steam_water: min = 372.76, mean = 372.76, max = 372.76
thermalPhaseChange:Tf.steam_water: min = 372.76, mean = 372.76, max = 372.76
thermalPhaseChange:dmdtf.steam_water: min = 1.399079068, mean = 1.399079068, max = 1.399079068, integral = 1.399079068
diagonal:  Solving for h.steam, Initial residual = 0, Final residual = 0, No Iterations 0
diagonal:  Solving for e.water, Initial residual = 0, Final residual = 0, No Iterations 0
steam min/max T 390.9846418 - 390.9846418
water min/max T 375.2430713 - 375.2430713
diagonal:  Solving for p_rgh, Initial residual = 0, Final residual = 0, No Iterations 0
ExecutionTime = 0.294504 s  ClockTime = 1 s

Courant Number mean: 0 max: 0
Time = 0.045s

PIMPLE: Iteration 1
MULES: Solving for alpha.steam
MULES: Solving for alpha.water
steam fraction, min, max = 0.9900924947 0.9900924947 0.9900924947
water fraction, min, max = 0.009907505316 0.009907505316 0.009907505316
Phase-sum volume fraction, min, max = 1 1 1
MULES: Solving for alpha.steam
MULES: Solving for alpha.water
steam fraction, min, max = 0.9900947641 0.9900947641 0.9900947641
water fraction, min, max = 0.009905235861 0.009905235861 0.009905235861
Phase-sum volume fraction, min, max = 1 1 1
MULES: Solving for alpha.steam
MULES: Solving for alpha.water
steam fraction, min, max = 0.9900970331 0.9900970331 0.9900970331
water fraction, min, max = 0.009902966926 0.009902966926 0.009902966926
Phase-sum volume fraction, min, max = 1 1 1
Constructing momentum equations
thermalPhaseChange:Tsat.steam_water: min = 372.76, mean = 372.76, max = 372.76
thermalPhaseChange:Tf.steam_water: min = 372.76, mean = 372.76, max = 372.76
thermalPhaseChange:dmdtf.steam_water: min = 1.398103993, mean = 1.398103993, max = 1.398103993, integral = 1.398103993
diagonal:  Solving for h.steam, Initial residual = 0, Final residual = 0, No Iterations 0
diagonal:  Solving for e.water, Initial residual = 0, Final residual = 0, No Iterations 0
steam min/max T 391.4555179 - 391.4555179
water min/max T 374.9314014 - 374.9314014
diagonal:  Solving for p_rgh, Initial residual = 0, Final residual = 0, No Iterations 0
PIMPLE: Iteration 2
MULES: Solving for alpha.steam
MULES: Solving for alpha.water
steam fraction, min, max = 0.9900924947 0.9900924947 0.9900924947
water fraction, min, max = 0.009907505339 0.009907505339 0.009907505339
Phase-sum volume fraction, min, max = 1 1 1
MULES: Solving for alpha.steam
MULES: Solving for alpha.water
steam fraction, min, max = 0.9900947641 0.9900947641 0.9900947641
water fraction, min, max = 0.009905235906 0.009905235906 0.009905235906
Phase-sum volume fraction, min, max = 1 1 1
MULES: Solving for alpha.steam
MULES: Solving for alpha.water
steam fraction, min, max = 0.990097033 0.990097033 0.990097033
water fraction, min, max = 0.009902966993 0.009902966993 0.009902966993
Phase-sum volume fraction, min, max = 1 1 1
Constructing momentum equations
thermalPhaseChange:Tsat.steam_water: min = 372.76, mean = 372.76, max = 372.76
thermalPhaseChange:Tf.steam_water: min = 372.76, mean = 372.76, max = 372.76
thermalPhaseChange:dmdtf.steam_water: min = 1.229081075, mean = 1.229081075, max = 1.229081075, integral = 1.229081075
diagonal:  Solving for h.steam, Initial residual = 0, Final residual = 0, No Iterations 0
diagonal:  Solving for e.water, Initial residual = 0, Final residual = 0, No Iterations 0
steam min/max T 391.476024 - 391.476024
water min/max T 374.9310602 - 374.9310602
diagonal:  Solving for p_rgh, Initial residual = 0, Final residual = 0, No Iterations 0
PIMPLE: Iteration 3
MULES: Solving for alpha.steam
MULES: Solving for alpha.water
steam fraction, min, max = 0.9900922203 0.9900922203 0.9900922203
water fraction, min, max = 0.009907779708 0.009907779708 0.009907779708
Phase-sum volume fraction, min, max = 1 1 1
MULES: Solving for alpha.steam
MULES: Solving for alpha.water
steam fraction, min, max = 0.9900942155 0.9900942155 0.9900942155
water fraction, min, max = 0.009905784527 0.009905784527 0.009905784527
Phase-sum volume fraction, min, max = 1 1 1
MULES: Solving for alpha.steam
MULES: Solving for alpha.water
steam fraction, min, max = 0.9900962103 0.9900962103 0.9900962103
water fraction, min, max = 0.009903789747 0.009903789747 0.009903789747
Phase-sum volume fraction, min, max = 1 1 1
Constructing momentum equations
thermalPhaseChange:Tsat.steam_water: min = 372.76, mean = 372.76, max = 372.76
thermalPhaseChange:Tf.steam_water: min = 372.76, mean = 372.76, max = 372.76
thermalPhaseChange:dmdtf.steam_water: min = 1.22904493, mean = 1.22904493, max = 1.22904493, integral = 1.22904493
diagonal:  Solving for h.steam, Initial residual = 0, Final residual = 0, No Iterations 0
diagonal:  Solving for e.water, Initial residual = 0, Final residual = 0, No Iterations 0
steam min/max T 391.3718639 - 391.3718639
water min/max T 374.9310352 - 374.9310352
diagonal:  Solving for p_rgh, Initial residual = 0, Final residual = 0, No Iterations 0
PIMPLE: Iteration 4
MULES: Solving for alpha.steam
MULES: Solving for alpha.water
steam fraction, min, max = 0.9900922201 0.9900922201 0.9900922201
water fraction, min, max = 0.009907779932 0.009907779932 0.009907779932
Phase-sum volume fraction, min, max = 1 1 1
MULES: Solving for alpha.steam
MULES: Solving for alpha.water
steam fraction, min, max = 0.990094215 0.990094215 0.990094215
water fraction, min, max = 0.009905784975 0.009905784975 0.009905784975
Phase-sum volume fraction, min, max = 1 1 1
MULES: Solving for alpha.steam
MULES: Solving for alpha.water
steam fraction, min, max = 0.9900962096 0.9900962096 0.9900962096
water fraction, min, max = 0.00990379042 0.00990379042 0.00990379042
Phase-sum volume fraction, min, max = 1 1 1
Constructing momentum equations
thermalPhaseChange:Tsat.steam_water: min = 372.76, mean = 372.76, max = 372.76
thermalPhaseChange:Tf.steam_water: min = 372.76, mean = 372.76, max = 372.76
thermalPhaseChange:dmdtf.steam_water: min = 1.228787262, mean = 1.228787262, max = 1.228787262, integral = 1.228787262
diagonal:  Solving for h.steam, Initial residual = 0, Final residual = 0, No Iterations 0
diagonal:  Solving for e.water, Initial residual = 0, Final residual = 0, No Iterations 0
steam min/max T 391.349182 - 391.349182
water min/max T 374.931035 - 374.931035
diagonal:  Solving for p_rgh, Initial residual = 0, Final residual = 0, No Iterations 0
PIMPLE: Iteration 5
MULES: Solving for alpha.steam
MULES: Solving for alpha.water
steam fraction, min, max = 0.9900922196 0.9900922196 0.9900922196
water fraction, min, max = 0.009907780351 0.009907780351 0.009907780351
Phase-sum volume fraction, min, max = 1 1 1
MULES: Solving for alpha.steam
MULES: Solving for alpha.water
steam fraction, min, max = 0.9900942142 0.9900942142 0.9900942142
water fraction, min, max = 0.009905785812 0.009905785812 0.009905785812
Phase-sum volume fraction, min, max = 1 1 1
MULES: Solving for alpha.steam
MULES: Solving for alpha.water
steam fraction, min, max = 0.9900962083 0.9900962083 0.9900962083
water fraction, min, max = 0.009903791675 0.009903791675 0.009903791675
Phase-sum volume fraction, min, max = 1 1 1
Constructing momentum equations
thermalPhaseChange:Tsat.steam_water: min = 372.76, mean = 372.76, max = 372.76
thermalPhaseChange:Tf.steam_water: min = 372.76, mean = 372.76, max = 372.76
thermalPhaseChange:dmdtf.steam_water: min = 1.228734115, mean = 1.228734115, max = 1.228734115, integral = 1.228734115
diagonal:  Solving for h.steam, Initial residual = 0, Final residual = 0, No Iterations 0
diagonal:  Solving for e.water, Initial residual = 0, Final residual = 0, No Iterations 0
steam min/max T 391.3440818 - 391.3440818
water min/max T 374.9310349 - 374.9310349
diagonal:  Solving for p_rgh, Initial residual = 0, Final residual = 0, No Iterations 0
ExecutionTime = 0.307361 s  ClockTime = 1 s

Courant Number mean: 0 max: 0
Time = 0.05s

PIMPLE: Iteration 1
MULES: Solving for alpha.steam
MULES: Solving for alpha.water
steam fraction, min, max = 0.990098202 0.990098202 0.990098202
water fraction, min, max = 0.009901798025 0.009901798025 0.009901798025
Phase-sum volume fraction, min, max = 1 1 1
MULES: Solving for alpha.steam
MULES: Solving for alpha.water
steam fraction, min, max = 0.9901001952 0.9901001952 0.9901001952
water fraction, min, max = 0.009899804777 0.009899804777 0.009899804777
Phase-sum volume fraction, min, max = 1 1 1
MULES: Solving for alpha.steam
MULES: Solving for alpha.water
steam fraction, min, max = 0.9901021881 0.9901021881 0.9901021881
water fraction, min, max = 0.00989781193 0.00989781193 0.00989781193
Phase-sum volume fraction, min, max = 1 1 1
Constructing momentum equations
thermalPhaseChange:Tsat.steam_water: min = 372.76, mean = 372.76, max = 372.76
thermalPhaseChange:Tf.steam_water: min = 372.76, mean = 372.76, max = 372.76
thermalPhaseChange:dmdtf.steam_water: min = 1.227980234, mean = 1.227980234, max = 1.227980234, integral = 1.227980234
diagonal:  Solving for h.steam, Initial residual = 0, Final residual = 0, No Iterations 0
diagonal:  Solving for e.water, Initial residual = 0, Final residual = 0, No Iterations 0
steam min/max T 391.6895289 - 391.6895289
water min/max T 374.6583539 - 374.6583539
diagonal:  Solving for p_rgh, Initial residual = 0, Final residual = 0, No Iterations 0
PIMPLE: Iteration 2
MULES: Solving for alpha.steam
MULES: Solving for alpha.water
steam fraction, min, max = 0.990098202 0.990098202 0.990098202
water fraction, min, max = 0.009901798045 0.009901798045 0.009901798045
Phase-sum volume fraction, min, max = 1 1 1
MULES: Solving for alpha.steam
MULES: Solving for alpha.water
steam fraction, min, max = 0.9901001952 0.9901001952 0.9901001952
water fraction, min, max = 0.009899804816 0.009899804816 0.009899804816
Phase-sum volume fraction, min, max = 1 1 1
MULES: Solving for alpha.steam
MULES: Solving for alpha.water
steam fraction, min, max = 0.990102188 0.990102188 0.990102188
water fraction, min, max = 0.009897811989 0.009897811989 0.009897811989
Phase-sum volume fraction, min, max = 1 1 1
Constructing momentum equations
thermalPhaseChange:Tsat.steam_water: min = 372.76, mean = 372.76, max = 372.76
thermalPhaseChange:Tf.steam_water: min = 372.76, mean = 372.76, max = 372.76
thermalPhaseChange:dmdtf.steam_water: min = 1.080022614, mean = 1.080022614, max = 1.080022614, integral = 1.080022614
diagonal:  Solving for h.steam, Initial residual = 0, Final residual = 0, No Iterations 0
diagonal:  Solving for e.water, Initial residual = 0, Final residual = 0, No Iterations 0
steam min/max T 391.7079377 - 391.7079377
water min/max T 374.6580924 - 374.6580924
diagonal:  Solving for p_rgh, Initial residual = 0, Final residual = 0, No Iterations 0
PIMPLE: Iteration 3
MULES: Solving for alpha.steam
MULES: Solving for alpha.water
steam fraction, min, max = 0.9900979618 0.9900979618 0.9900979618
water fraction, min, max = 0.009902038212 0.009902038212 0.009902038212
Phase-sum volume fraction, min, max = 1 1 1
MULES: Solving for alpha.steam
MULES: Solving for alpha.water
steam fraction, min, max = 0.9900997149 0.9900997149 0.9900997149
water fraction, min, max = 0.009900285059 0.009900285059 0.009900285059
Phase-sum volume fraction, min, max = 1 1 1
MULES: Solving for alpha.steam
MULES: Solving for alpha.water
steam fraction, min, max = 0.9901014678 0.9901014678 0.9901014678
water fraction, min, max = 0.009898532217 0.009898532217 0.009898532217
Phase-sum volume fraction, min, max = 1 1 1
Constructing momentum equations
thermalPhaseChange:Tsat.steam_water: min = 372.76, mean = 372.76, max = 372.76
thermalPhaseChange:Tf.steam_water: min = 372.76, mean = 372.76, max = 372.76
thermalPhaseChange:dmdtf.steam_water: min = 1.080001537, mean = 1.080001537, max = 1.080001537, integral = 1.080001537
diagonal:  Solving for h.steam, Initial residual = 0, Final residual = 0, No Iterations 0
diagonal:  Solving for e.water, Initial residual = 0, Final residual = 0, No Iterations 0
steam min/max T 391.6175545 - 391.6175545
water min/max T 374.658073 - 374.658073
diagonal:  Solving for p_rgh, Initial residual = 0, Final residual = 0, No Iterations 0
PIMPLE: Iteration 4
MULES: Solving for alpha.steam
MULES: Solving for alpha.water
steam fraction, min, max = 0.9900979616 0.9900979616 0.9900979616
water fraction, min, max = 0.009902038374 0.009902038374 0.009902038374
Phase-sum volume fraction, min, max = 1 1 1
MULES: Solving for alpha.steam
MULES: Solving for alpha.water
steam fraction, min, max = 0.9900997146 0.9900997146 0.9900997146
water fraction, min, max = 0.009900285383 0.009900285383 0.009900285383
Phase-sum volume fraction, min, max = 1 1 1
MULES: Solving for alpha.steam
MULES: Solving for alpha.water
steam fraction, min, max = 0.9901014673 0.9901014673 0.9901014673
water fraction, min, max = 0.009898532703 0.009898532703 0.009898532703
Phase-sum volume fraction, min, max = 1 1 1
Constructing momentum equations
thermalPhaseChange:Tsat.steam_water: min = 372.76, mean = 372.76, max = 372.76
thermalPhaseChange:Tf.steam_water: min = 372.76, mean = 372.76, max = 372.76
thermalPhaseChange:dmdtf.steam_water: min = 1.079779324, mean = 1.079779324, max = 1.079779324, integral = 1.079779324
diagonal:  Solving for h.steam, Initial residual = 0, Final residual = 0, No Iterations 0
diagonal:  Solving for e.water, Initial residual = 0, Final residual = 0, No Iterations 0
steam min/max T 391.5978762 - 391.5978762
water min/max T 374.6580728 - 374.6580728
diagonal:  Solving for p_rgh, Initial residual = 0, Final residual = 0, No Iterations 0
PIMPLE: Iteration 5
MULES: Solving for alpha.steam
MULES: Solving for alpha.water
steam fraction, min, max = 0.9900979613 0.9900979613 0.9900979613
water fraction, min, max = 0.009902038734 0.009902038734 0.009902038734
Phase-sum volume fraction, min, max = 1 1 1
MULES: Solving for alpha.steam
MULES: Solving for alpha.water
steam fraction, min, max = 0.9900997139 0.9900997139 0.9900997139
water fraction, min, max = 0.009900286104 0.009900286104 0.009900286104
Phase-sum volume fraction, min, max = 1 1 1
MULES: Solving for alpha.steam
MULES: Solving for alpha.water
steam fraction, min, max = 0.9901014662 0.9901014662 0.9901014662
water fraction, min, max = 0.009898533785 0.009898533785 0.009898533785
Phase-sum volume fraction, min, max = 1 1 1
Constructing momentum equations
thermalPhaseChange:Tsat.steam_water: min = 372.76, mean = 372.76, max = 372.76
thermalPhaseChange:Tf.steam_water: min = 372.76, mean = 372.76, max = 372.76
thermalPhaseChange:dmdtf.steam_water: min = 1.079733241, mean = 1.079733241, max = 1.079733241, integral = 1.079733241
diagonal:  Solving for h.steam, Initial residual = 0, Final residual = 0, No Iterations 0
diagonal:  Solving for e.water, Initial residual = 0, Final residual = 0, No Iterations 0
steam min/max T 391.5934526 - 391.5934526
water min/max T 374.6580727 - 374.6580727
diagonal:  Solving for p_rgh, Initial residual = 0, Final residual = 0, No Iterations 0
ExecutionTime = 0.320948 s  ClockTime = 1 s

Courant Number mean: 0 max: 0
Time = 0.055s

PIMPLE: Iteration 1
MULES: Solving for alpha.steam
MULES: Solving for alpha.water
steam fraction, min, max = 0.9901032182 0.9901032182 0.9901032182
water fraction, min, max = 0.00989678185 0.00989678185 0.00989678185
Phase-sum volume fraction, min, max = 1 1 1
MULES: Solving for alpha.steam
MULES: Solving for alpha.water
steam fraction, min, max = 0.9901049698 0.9901049698 0.9901049698
water fraction, min, max = 0.009895030225 0.009895030225 0.009895030225
Phase-sum volume fraction, min, max = 1 1 1
MULES: Solving for alpha.steam
MULES: Solving for alpha.water
steam fraction, min, max = 0.9901067211 0.9901067211 0.9901067211
water fraction, min, max = 0.009893278911 0.009893278911 0.009893278911
Phase-sum volume fraction, min, max = 1 1 1
Constructing momentum equations
thermalPhaseChange:Tsat.steam_water: min = 372.76, mean = 372.76, max = 372.76
thermalPhaseChange:Tf.steam_water: min = 372.76, mean = 372.76, max = 372.76
thermalPhaseChange:dmdtf.steam_water: min = 1.079149647, mean = 1.079149647, max = 1.079149647, integral = 1.079149647
diagonal:  Solving for h.steam, Initial residual = 0, Final residual = 0, No Iterations 0
diagonal:  Solving for e.water, Initial residual = 0, Final residual = 0, No Iterations 0
steam min/max T 391.8335711 - 391.8335711
water min/max T 374.4195401 - 374.4195401
diagonal:  Solving for p_rgh, Initial residual = 0, Final residual = 0, No Iterations 0
PIMPLE: Iteration 2
MULES: Solving for alpha.steam
MULES: Solving for alpha.water
steam fraction, min, max = 0.9901032181 0.9901032181 0.9901032181
water fraction, min, max = 0.009896781867 0.009896781867 0.009896781867
Phase-sum volume fraction, min, max = 1 1 1
MULES: Solving for alpha.steam
MULES: Solving for alpha.water
steam fraction, min, max = 0.9901049697 0.9901049697 0.9901049697
water fraction, min, max = 0.009895030259 0.009895030259 0.009895030259
Phase-sum volume fraction, min, max = 1 1 1
MULES: Solving for alpha.steam
MULES: Solving for alpha.water
steam fraction, min, max = 0.990106721 0.990106721 0.990106721
water fraction, min, max = 0.009893278961 0.009893278961 0.009893278961
Phase-sum volume fraction, min, max = 1 1 1
Constructing momentum equations
thermalPhaseChange:Tsat.steam_water: min = 372.76, mean = 372.76, max = 372.76
thermalPhaseChange:Tf.steam_water: min = 372.76, mean = 372.76, max = 372.76
thermalPhaseChange:dmdtf.steam_water: min = 0.9496348543, mean = 0.9496348543, max = 0.9496348543, integral = 0.9496348543
diagonal:  Solving for h.steam, Initial residual = 0, Final residual = 0, No Iterations 0
diagonal:  Solving for e.water, Initial residual = 0, Final residual = 0, No Iterations 0
steam min/max T 391.8500189 - 391.8500189
water min/max T 374.4193395 - 374.4193395
diagonal:  Solving for p_rgh, Initial residual = 0, Final residual = 0, No Iterations 0
PIMPLE: Iteration 3
MULES: Solving for alpha.steam
MULES: Solving for alpha.water
steam fraction, min, max = 0.9901030079 0.9901030079 0.9901030079
water fraction, min, max = 0.009896992091 0.009896992091 0.009896992091
Phase-sum volume fraction, min, max = 1 1 1
MULES: Solving for alpha.steam
MULES: Solving for alpha.water
steam fraction, min, max = 0.9901045494 0.9901045494 0.9901045494
water fraction, min, max = 0.009895450639 0.009895450639 0.009895450639
Phase-sum volume fraction, min, max = 1 1 1
MULES: Solving for alpha.steam
MULES: Solving for alpha.water
steam fraction, min, max = 0.9901060906 0.9901060906 0.9901060906
water fraction, min, max = 0.009893909426 0.009893909426 0.009893909426
Phase-sum volume fraction, min, max = 1 1 1
Constructing momentum equations
thermalPhaseChange:Tsat.steam_water: min = 372.76, mean = 372.76, max = 372.76
thermalPhaseChange:Tf.steam_water: min = 372.76, mean = 372.76, max = 372.76
thermalPhaseChange:dmdtf.steam_water: min = 0.9496244484, mean = 0.9496244484, max = 0.9496244484, integral = 0.9496244484
diagonal:  Solving for h.steam, Initial residual = 0, Final residual = 0, No Iterations 0
diagonal:  Solving for e.water, Initial residual = 0, Final residual = 0, No Iterations 0
steam min/max T 391.7715151 - 391.7715151
water min/max T 374.4193245 - 374.4193245
diagonal:  Solving for p_rgh, Initial residual = 0, Final residual = 0, No Iterations 0
PIMPLE: Iteration 4
MULES: Solving for alpha.steam
MULES: Solving for alpha.water
steam fraction, min, max = 0.9901030078 0.9901030078 0.9901030078
water fraction, min, max = 0.009896992207 0.009896992207 0.009896992207
Phase-sum volume fraction, min, max = 1 1 1
MULES: Solving for alpha.steam
MULES: Solving for alpha.water
steam fraction, min, max = 0.9901045491 0.9901045491 0.9901045491
water fraction, min, max = 0.009895450869 0.009895450869 0.009895450869
Phase-sum volume fraction, min, max = 1 1 1
MULES: Solving for alpha.steam
MULES: Solving for alpha.water
steam fraction, min, max = 0.9901060902 0.9901060902 0.9901060902
water fraction, min, max = 0.009893909771 0.009893909771 0.009893909771
Phase-sum volume fraction, min, max = 1 1 1
Constructing momentum equations
thermalPhaseChange:Tsat.steam_water: min = 372.76, mean = 372.76, max = 372.76
thermalPhaseChange:Tf.steam_water: min = 372.76, mean = 372.76, max = 372.76
thermalPhaseChange:dmdtf.steam_water: min = 0.9494325009, mean = 0.9494325009, max = 0.9494325009, integral = 0.9494325009
diagonal:  Solving for h.steam, Initial residual = 0, Final residual = 0, No Iterations 0
diagonal:  Solving for e.water, Initial residual = 0, Final residual = 0, No Iterations 0
steam min/max T 391.7544257 - 391.7544257
water min/max T 374.4193244 - 374.4193244
diagonal:  Solving for p_rgh, Initial residual = 0, Final residual = 0, No Iterations 0
PIMPLE: Iteration 5
[...]
PIMPLE: Iteration 2
MULES: Solving for alpha.steam
MULES: Solving for alpha.water
steam fraction, min, max = 0.990148515 0.990148515 0.990148515
water fraction, min, max = 0.009851485 0.009851485 0.009851485
Phase-sum volume fraction, min, max = 1 1 1
MULES: Solving for alpha.steam
MULES: Solving for alpha.water
steam fraction, min, max = 0.9901485168 0.9901485168 0.9901485168
water fraction, min, max = 0.009851483185 0.009851483185 0.009851483185
Phase-sum volume fraction, min, max = 1 1 1
MULES: Solving for alpha.steam
MULES: Solving for alpha.water
steam fraction, min, max = 0.9901485186 0.9901485186 0.9901485186
water fraction, min, max = 0.009851481371 0.009851481371 0.009851481371
Phase-sum volume fraction, min, max = 1 1 1
Constructing momentum equations
thermalPhaseChange:Tsat.steam_water: min = 372.76, mean = 372.76, max = 372.76
thermalPhaseChange:Tf.steam_water: min = 372.76, mean = 372.76, max = 372.76
thermalPhaseChange:dmdtf.steam_water: min = 0.001095238108, mean = 0.001095238108, max = 0.001095238108, integral = 0.001095238108
diagonal:  Solving for h.steam, Initial residual = 0, Final residual = 0, No Iterations 0
diagonal:  Solving for e.water, Initial residual = 0, Final residual = 0, No Iterations 0
steam min/max T 373.2298948 - 373.2298948
water min/max T 372.76 - 372.76
diagonal:  Solving for p_rgh, Initial residual = 0, Final residual = 0, No Iterations 0
PIMPLE: Iteration 3
MULES: Solving for alpha.steam
MULES: Solving for alpha.water
steam fraction, min, max = 0.990148515 0.990148515 0.990148515
water fraction, min, max = 0.009851485038 0.009851485038 0.009851485038
Phase-sum volume fraction, min, max = 1 1 1
MULES: Solving for alpha.steam
MULES: Solving for alpha.water
steam fraction, min, max = 0.9901485167 0.9901485167 0.9901485167
water fraction, min, max = 0.00985148326 0.00985148326 0.00985148326
Phase-sum volume fraction, min, max = 1 1 1
MULES: Solving for alpha.steam
MULES: Solving for alpha.water
steam fraction, min, max = 0.9901485185 0.9901485185 0.9901485185
water fraction, min, max = 0.009851481483 0.009851481483 0.009851481483
Phase-sum volume fraction, min, max = 1 1 1
Constructing momentum equations
thermalPhaseChange:Tsat.steam_water: min = 372.76, mean = 372.76, max = 372.76
thermalPhaseChange:Tf.steam_water: min = 372.76, mean = 372.76, max = 372.76
thermalPhaseChange:dmdtf.steam_water: min = 0.001095327233, mean = 0.001095327233, max = 0.001095327233, integral = 0.001095327233
diagonal:  Solving for h.steam, Initial residual = 0, Final residual = 0, No Iterations 0
diagonal:  Solving for e.water, Initial residual = 0, Final residual = 0, No Iterations 0
steam min/max T 373.2298901 - 373.2298901
water min/max T 372.76 - 372.76
diagonal:  Solving for p_rgh, Initial residual = 0, Final residual = 0, No Iterations 0
PIMPLE: Iteration 4
MULES: Solving for alpha.steam
MULES: Solving for alpha.water
steam fraction, min, max = 0.990148515 0.990148515 0.990148515
water fraction, min, max = 0.009851485037 0.009851485037 0.009851485037
Phase-sum volume fraction, min, max = 1 1 1
MULES: Solving for alpha.steam
MULES: Solving for alpha.water
steam fraction, min, max = 0.9901485167 0.9901485167 0.9901485167
water fraction, min, max = 0.00985148326 0.00985148326 0.00985148326
Phase-sum volume fraction, min, max = 1 1 1
MULES: Solving for alpha.steam
MULES: Solving for alpha.water
steam fraction, min, max = 0.9901485185 0.9901485185 0.9901485185
water fraction, min, max = 0.009851481482 0.009851481482 0.009851481482
Phase-sum volume fraction, min, max = 1 1 1
Constructing momentum equations
thermalPhaseChange:Tsat.steam_water: min = 372.76, mean = 372.76, max = 372.76
thermalPhaseChange:Tf.steam_water: min = 372.76, mean = 372.76, max = 372.76
thermalPhaseChange:dmdtf.steam_water: min = 0.001095315991, mean = 0.001095315991, max = 0.001095315991, integral = 0.001095315991
diagonal:  Solving for h.steam, Initial residual = 0, Final residual = 0, No Iterations 0
diagonal:  Solving for e.water, Initial residual = 0, Final residual = 0, No Iterations 0
steam min/max T 373.2298891 - 373.2298891
water min/max T 372.76 - 372.76
diagonal:  Solving for p_rgh, Initial residual = 0, Final residual = 0, No Iterations 0
PIMPLE: Iteration 5
MULES: Solving for alpha.steam
MULES: Solving for alpha.water
steam fraction, min, max = 0.990148515 0.990148515 0.990148515
water fraction, min, max = 0.009851485037 0.009851485037 0.009851485037
Phase-sum volume fraction, min, max = 1 1 1
MULES: Solving for alpha.steam
MULES: Solving for alpha.water
steam fraction, min, max = 0.9901485167 0.9901485167 0.9901485167
water fraction, min, max = 0.00985148326 0.00985148326 0.00985148326
Phase-sum volume fraction, min, max = 1 1 1
MULES: Solving for alpha.steam
MULES: Solving for alpha.water
steam fraction, min, max = 0.9901485185 0.9901485185 0.9901485185
water fraction, min, max = 0.009851481482 0.009851481482 0.009851481482
Phase-sum volume fraction, min, max = 1 1 1
Constructing momentum equations
thermalPhaseChange:Tsat.steam_water: min = 372.76, mean = 372.76, max = 372.76
thermalPhaseChange:Tf.steam_water: min = 372.76, mean = 372.76, max = 372.76
thermalPhaseChange:dmdtf.steam_water: min = 0.001095313691, mean = 0.001095313691, max = 0.001095313691, integral = 0.001095313691
diagonal:  Solving for h.steam, Initial residual = 0, Final residual = 0, No Iterations 0
diagonal:  Solving for e.water, Initial residual = 0, Final residual = 0, No Iterations 0
steam min/max T 373.2298889 - 373.2298889
water min/max T 372.76 - 372.76
diagonal:  Solving for p_rgh, Initial residual = 0, Final residual = 0, No Iterations 0
ExecutionTime = 3.731639 s  ClockTime = 4 s

Courant Number mean: 0 max: 0
Time = 0.995s

PIMPLE: Iteration 1
MULES: Solving for alpha.steam
MULES: Solving for alpha.water
steam fraction, min, max = 0.9901485203 0.9901485203 0.9901485203
water fraction, min, max = 0.009851479705 0.009851479705 0.009851479705
Phase-sum volume fraction, min, max = 1 1 1
MULES: Solving for alpha.steam
MULES: Solving for alpha.water
steam fraction, min, max = 0.9901485221 0.9901485221 0.9901485221
water fraction, min, max = 0.009851477927 0.009851477927 0.009851477927
Phase-sum volume fraction, min, max = 1 1 1
MULES: Solving for alpha.steam
MULES: Solving for alpha.water
steam fraction, min, max = 0.9901485239 0.9901485239 0.9901485239
water fraction, min, max = 0.00985147615 0.00985147615 0.00985147615
Phase-sum volume fraction, min, max = 1 1 1
Constructing momentum equations
thermalPhaseChange:Tsat.steam_water: min = 372.76, mean = 372.76, max = 372.76
thermalPhaseChange:Tf.steam_water: min = 372.76, mean = 372.76, max = 372.76
thermalPhaseChange:dmdtf.steam_water: min = 0.001095312581, mean = 0.001095312581, max = 0.001095312581, integral = 0.001095312581
diagonal:  Solving for h.steam, Initial residual = 0, Final residual = 0, No Iterations 0
diagonal:  Solving for e.water, Initial residual = 0, Final residual = 0, No Iterations 0
steam min/max T 373.2202036 - 373.2202036
water min/max T 372.76 - 372.76
diagonal:  Solving for p_rgh, Initial residual = 0, Final residual = 0, No Iterations 0
PIMPLE: Iteration 2
MULES: Solving for alpha.steam
MULES: Solving for alpha.water
steam fraction, min, max = 0.9901485203 0.9901485203 0.9901485203
water fraction, min, max = 0.009851479705 0.009851479705 0.009851479705
Phase-sum volume fraction, min, max = 1 1 1
MULES: Solving for alpha.steam
MULES: Solving for alpha.water
steam fraction, min, max = 0.9901485221 0.9901485221 0.9901485221
water fraction, min, max = 0.009851477927 0.009851477927 0.009851477927
Phase-sum volume fraction, min, max = 1 1 1
MULES: Solving for alpha.steam
MULES: Solving for alpha.water
steam fraction, min, max = 0.9901485239 0.9901485239 0.9901485239
water fraction, min, max = 0.00985147615 0.00985147615 0.00985147615
Phase-sum volume fraction, min, max = 1 1 1
Constructing momentum equations
thermalPhaseChange:Tsat.steam_water: min = 372.76, mean = 372.76, max = 372.76
thermalPhaseChange:Tf.steam_water: min = 372.76, mean = 372.76, max = 372.76
thermalPhaseChange:dmdtf.steam_water: min = 0.001072736109, mean = 0.001072736109, max = 0.001072736109, integral = 0.001072736109
diagonal:  Solving for h.steam, Initial residual = 0, Final residual = 0, No Iterations 0
diagonal:  Solving for e.water, Initial residual = 0, Final residual = 0, No Iterations 0
steam min/max T 373.2202409 - 373.2202409
water min/max T 372.76 - 372.76
diagonal:  Solving for p_rgh, Initial residual = 0, Final residual = 0, No Iterations 0
PIMPLE: Iteration 3
MULES: Solving for alpha.steam
MULES: Solving for alpha.water
steam fraction, min, max = 0.9901485203 0.9901485203 0.9901485203
water fraction, min, max = 0.009851479742 0.009851479742 0.009851479742
Phase-sum volume fraction, min, max = 1 1 1
MULES: Solving for alpha.steam
MULES: Solving for alpha.water
steam fraction, min, max = 0.990148522 0.990148522 0.990148522
water fraction, min, max = 0.009851478001 0.009851478001 0.009851478001
Phase-sum volume fraction, min, max = 1 1 1
MULES: Solving for alpha.steam
MULES: Solving for alpha.water
steam fraction, min, max = 0.9901485237 0.9901485237 0.9901485237
water fraction, min, max = 0.00985147626 0.00985147626 0.00985147626
Phase-sum volume fraction, min, max = 1 1 1
Constructing momentum equations
thermalPhaseChange:Tsat.steam_water: min = 372.76, mean = 372.76, max = 372.76
thermalPhaseChange:Tf.steam_water: min = 372.76, mean = 372.76, max = 372.76
thermalPhaseChange:dmdtf.steam_water: min = 0.001072823397, mean = 0.001072823397, max = 0.001072823397, integral = 0.001072823397
diagonal:  Solving for h.steam, Initial residual = 0, Final residual = 0, No Iterations 0
diagonal:  Solving for e.water, Initial residual = 0, Final residual = 0, No Iterations 0
steam min/max T 373.2202363 - 373.2202363
water min/max T 372.76 - 372.76
diagonal:  Solving for p_rgh, Initial residual = 0, Final residual = 0, No Iterations 0
PIMPLE: Iteration 4
MULES: Solving for alpha.steam
MULES: Solving for alpha.water
steam fraction, min, max = 0.9901485203 0.9901485203 0.9901485203
water fraction, min, max = 0.009851479741 0.009851479741 0.009851479741
Phase-sum volume fraction, min, max = 1 1 1
MULES: Solving for alpha.steam
MULES: Solving for alpha.water
steam fraction, min, max = 0.990148522 0.990148522 0.990148522
water fraction, min, max = 0.009851478 0.009851478 0.009851478
Phase-sum volume fraction, min, max = 1 1 1
MULES: Solving for alpha.steam
MULES: Solving for alpha.water
steam fraction, min, max = 0.9901485237 0.9901485237 0.9901485237
water fraction, min, max = 0.009851476259 0.009851476259 0.009851476259
Phase-sum volume fraction, min, max = 1 1 1
Constructing momentum equations
thermalPhaseChange:Tsat.steam_water: min = 372.76, mean = 372.76, max = 372.76
thermalPhaseChange:Tf.steam_water: min = 372.76, mean = 372.76, max = 372.76
thermalPhaseChange:dmdtf.steam_water: min = 0.001072812386, mean = 0.001072812386, max = 0.001072812386, integral = 0.001072812386
diagonal:  Solving for h.steam, Initial residual = 0, Final residual = 0, No Iterations 0
diagonal:  Solving for e.water, Initial residual = 0, Final residual = 0, No Iterations 0
steam min/max T 373.2202353 - 373.2202353
water min/max T 372.76 - 372.76
diagonal:  Solving for p_rgh, Initial residual = 0, Final residual = 0, No Iterations 0
PIMPLE: Iteration 5
MULES: Solving for alpha.steam
MULES: Solving for alpha.water
steam fraction, min, max = 0.9901485203 0.9901485203 0.9901485203
water fraction, min, max = 0.009851479741 0.009851479741 0.009851479741
Phase-sum volume fraction, min, max = 1 1 1
MULES: Solving for alpha.steam
MULES: Solving for alpha.water
steam fraction, min, max = 0.990148522 0.990148522 0.990148522
water fraction, min, max = 0.009851478 0.009851478 0.009851478
Phase-sum volume fraction, min, max = 1 1 1
MULES: Solving for alpha.steam
MULES: Solving for alpha.water
steam fraction, min, max = 0.9901485237 0.9901485237 0.9901485237
water fraction, min, max = 0.009851476259 0.009851476259 0.009851476259
Phase-sum volume fraction, min, max = 1 1 1
Constructing momentum equations
thermalPhaseChange:Tsat.steam_water: min = 372.76, mean = 372.76, max = 372.76
thermalPhaseChange:Tf.steam_water: min = 372.76, mean = 372.76, max = 372.76
thermalPhaseChange:dmdtf.steam_water: min = 0.001072810134, mean = 0.001072810134, max = 0.001072810134, integral = 0.001072810134
diagonal:  Solving for h.steam, Initial residual = 0, Final residual = 0, No Iterations 0
diagonal:  Solving for e.water, Initial residual = 0, Final residual = 0, No Iterations 0
steam min/max T 373.2202351 - 373.2202351
water min/max T 372.76 - 372.76
diagonal:  Solving for p_rgh, Initial residual = 0, Final residual = 0, No Iterations 0
ExecutionTime = 3.744637 s  ClockTime = 4 s

Courant Number mean: 0 max: 0
Time = 1s

PIMPLE: Iteration 1
MULES: Solving for alpha.steam
MULES: Solving for alpha.water
steam fraction, min, max = 0.9901485255 0.9901485255 0.9901485255
water fraction, min, max = 0.009851474518 0.009851474518 0.009851474518
Phase-sum volume fraction, min, max = 1 1 1
MULES: Solving for alpha.steam
MULES: Solving for alpha.water
steam fraction, min, max = 0.9901485272 0.9901485272 0.9901485272
water fraction, min, max = 0.009851472777 0.009851472777 0.009851472777
Phase-sum volume fraction, min, max = 1 1 1
MULES: Solving for alpha.steam
MULES: Solving for alpha.water
steam fraction, min, max = 0.990148529 0.990148529 0.990148529
water fraction, min, max = 0.009851471036 0.009851471036 0.009851471036
Phase-sum volume fraction, min, max = 1 1 1
Constructing momentum equations
thermalPhaseChange:Tsat.steam_water: min = 372.76, mean = 372.76, max = 372.76
thermalPhaseChange:Tf.steam_water: min = 372.76, mean = 372.76, max = 372.76
thermalPhaseChange:dmdtf.steam_water: min = 0.001072809058, mean = 0.001072809058, max = 0.001072809058, integral = 0.001072809058
diagonal:  Solving for h.steam, Initial residual = 0, Final residual = 0, No Iterations 0
diagonal:  Solving for e.water, Initial residual = 0, Final residual = 0, No Iterations 0
steam min/max T 373.2107489 - 373.2107489
water min/max T 372.76 - 372.76
diagonal:  Solving for p_rgh, Initial residual = 0, Final residual = 0, No Iterations 0
PIMPLE: Iteration 2
MULES: Solving for alpha.steam
MULES: Solving for alpha.water
steam fraction, min, max = 0.9901485255 0.9901485255 0.9901485255
water fraction, min, max = 0.009851474518 0.009851474518 0.009851474518
Phase-sum volume fraction, min, max = 1 1 1
MULES: Solving for alpha.steam
MULES: Solving for alpha.water
steam fraction, min, max = 0.9901485272 0.9901485272 0.9901485272
water fraction, min, max = 0.009851472777 0.009851472777 0.009851472777
Phase-sum volume fraction, min, max = 1 1 1
MULES: Solving for alpha.steam
MULES: Solving for alpha.water
steam fraction, min, max = 0.990148529 0.990148529 0.990148529
water fraction, min, max = 0.009851471036 0.009851471036 0.009851471036
Phase-sum volume fraction, min, max = 1 1 1
Constructing momentum equations
thermalPhaseChange:Tsat.steam_water: min = 372.76, mean = 372.76, max = 372.76
thermalPhaseChange:Tf.steam_water: min = 372.76, mean = 372.76, max = 372.76
thermalPhaseChange:dmdtf.steam_water: min = 0.001050696763, mean = 0.001050696763, max = 0.001050696763, integral = 0.001050696763
diagonal:  Solving for h.steam, Initial residual = 0, Final residual = 0, No Iterations 0
diagonal:  Solving for e.water, Initial residual = 0, Final residual = 0, No Iterations 0
steam min/max T 373.2107855 - 373.2107855
water min/max T 372.76 - 372.76
diagonal:  Solving for p_rgh, Initial residual = 0, Final residual = 0, No Iterations 0
PIMPLE: Iteration 3
MULES: Solving for alpha.steam
MULES: Solving for alpha.water
steam fraction, min, max = 0.9901485254 0.9901485254 0.9901485254
water fraction, min, max = 0.009851474554 0.009851474554 0.009851474554
Phase-sum volume fraction, min, max = 1 1 1
MULES: Solving for alpha.steam
MULES: Solving for alpha.water
steam fraction, min, max = 0.9901485272 0.9901485272 0.9901485272
water fraction, min, max = 0.009851472849 0.009851472849 0.009851472849
Phase-sum volume fraction, min, max = 1 1 1
MULES: Solving for alpha.steam
MULES: Solving for alpha.water
steam fraction, min, max = 0.9901485289 0.9901485289 0.9901485289
water fraction, min, max = 0.009851471144 0.009851471144 0.009851471144
Phase-sum volume fraction, min, max = 1 1 1
Constructing momentum equations
thermalPhaseChange:Tsat.steam_water: min = 372.76, mean = 372.76, max = 372.76
thermalPhaseChange:Tf.steam_water: min = 372.76, mean = 372.76, max = 372.76
thermalPhaseChange:dmdtf.steam_water: min = 0.001050782252, mean = 0.001050782252, max = 0.001050782252, integral = 0.001050782252
diagonal:  Solving for h.steam, Initial residual = 0, Final residual = 0, No Iterations 0
diagonal:  Solving for e.water, Initial residual = 0, Final residual = 0, No Iterations 0
steam min/max T 373.210781 - 373.210781
water min/max T 372.76 - 372.76
diagonal:  Solving for p_rgh, Initial residual = 0, Final residual = 0, No Iterations 0
PIMPLE: Iteration 4
MULES: Solving for alpha.steam
MULES: Solving for alpha.water
steam fraction, min, max = 0.9901485254 0.9901485254 0.9901485254
water fraction, min, max = 0.009851474554 0.009851474554 0.009851474554
Phase-sum volume fraction, min, max = 1 1 1
MULES: Solving for alpha.steam
MULES: Solving for alpha.water
steam fraction, min, max = 0.9901485272 0.9901485272 0.9901485272
water fraction, min, max = 0.009851472849 0.009851472849 0.009851472849
Phase-sum volume fraction, min, max = 1 1 1
MULES: Solving for alpha.steam
MULES: Solving for alpha.water
steam fraction, min, max = 0.9901485289 0.9901485289 0.9901485289
water fraction, min, max = 0.009851471144 0.009851471144 0.009851471144
Phase-sum volume fraction, min, max = 1 1 1
Constructing momentum equations
thermalPhaseChange:Tsat.steam_water: min = 372.76, mean = 372.76, max = 372.76
thermalPhaseChange:Tf.steam_water: min = 372.76, mean = 372.76, max = 372.76
thermalPhaseChange:dmdtf.steam_water: min = 0.001050771468, mean = 0.001050771468, max = 0.001050771468, integral = 0.001050771468
diagonal:  Solving for h.steam, Initial residual = 0, Final residual = 0, No Iterations 0
diagonal:  Solving for e.water, Initial residual = 0, Final residual = 0, No Iterations 0
steam min/max T 373.21078 - 373.21078
water min/max T 372.76 - 372.76
diagonal:  Solving for p_rgh, Initial residual = 0, Final residual = 0, No Iterations 0
PIMPLE: Iteration 5
MULES: Solving for alpha.steam
MULES: Solving for alpha.water
steam fraction, min, max = 0.9901485254 0.9901485254 0.9901485254
water fraction, min, max = 0.009851474554 0.009851474554 0.009851474554
Phase-sum volume fraction, min, max = 1 1 1
MULES: Solving for alpha.steam
MULES: Solving for alpha.water
steam fraction, min, max = 0.9901485272 0.9901485272 0.9901485272
water fraction, min, max = 0.009851472849 0.009851472849 0.009851472849
Phase-sum volume fraction, min, max = 1 1 1
MULES: Solving for alpha.steam
MULES: Solving for alpha.water
steam fraction, min, max = 0.9901485289 0.9901485289 0.9901485289
water fraction, min, max = 0.009851471144 0.009851471144 0.009851471144
Phase-sum volume fraction, min, max = 1 1 1
Constructing momentum equations
thermalPhaseChange:Tsat.steam_water: min = 372.76, mean = 372.76, max = 372.76
thermalPhaseChange:Tf.steam_water: min = 372.76, mean = 372.76, max = 372.76
thermalPhaseChange:dmdtf.steam_water: min = 0.001050769261, mean = 0.001050769261, max = 0.001050769261, integral = 0.001050769261
diagonal:  Solving for h.steam, Initial residual = 0, Final residual = 0, No Iterations 0
diagonal:  Solving for e.water, Initial residual = 0, Final residual = 0, No Iterations 0
steam min/max T 373.2107798 - 373.2107798
water min/max T 372.76 - 372.76
diagonal:  Solving for p_rgh, Initial residual = 0, Final residual = 0, No Iterations 0
ExecutionTime = 3.759833 s  ClockTime = 4 s

End

