/*---------------------------------------------------------------------------*\
  =========                 |
  \\      /  F ield         | OpenFOAM: The Open Source CFD Toolbox
   \\    /   O peration     | Website:  https://openfoam.org
    \\  /    A nd           | Version:  12
     \\/     M anipulation  |
\*---------------------------------------------------------------------------*/
Build  : 12-cc05c1b03c38
Exec   : foamRun
Date   : Oct 15 2024
Time   : 06:10:49
Host   : "DESKTOP-KBPC6IC"
PID    : 249480
I/O    : uncollated
Case   : /home/as/openfoam/OpenFOAM-12/test/multiphaseEuler/thermal/waterEvaporation
nProcs : 1
sigFpe : Enabling floating point exception trapping (FOAM_SIGFPE).
fileModificationChecking : Monitoring run-time modified files using timeStampMaster (fileModificationSkew 10)
allowSystemOperations : Allowing user-supplied system call operations

// * * * * * * * * * * * * * * * * * * * * * * * * * * * * * * * * * * * * * //
Create time

Create mesh for time = 0

Selecting solver multiphaseEuler
Selecting phaseSystem thermalPhaseChangeMultiphaseSystem
No MRF models present

Selecting phaseModel for steam: purePhaseModel
Selecting diameterModel for phase steam: none
Selecting thermodynamics package 
{
    type            heRhoThermo;
    mixture         pureMixture;
    transport       const;
    thermo          hConst;
    equationOfState perfectGas;
    specie          specie;
    energy          sensibleEnthalpy;
}

Calculating face flux field phi.steam
Selecting turbulence model type laminar
Selecting laminar stress model Stokes
Selecting thermophysical transport type laminar
Selecting default laminar thermophysical transport model unityLewisFourier
Selecting phaseModel for water: purePhaseModel
Selecting diameterModel for phase water: constant
Selecting thermodynamics package 
{
    type            heRhoThermo;
    mixture         pureMixture;
    transport       const;
    thermo          hConst;
    equationOfState rhoConst;
    specie          specie;
    energy          sensibleEnthalpy;
}

Calculating face flux field phi.water
Selecting turbulence model type laminar
Selecting laminar stress model Stokes
Selecting thermophysical transport type laminar
Selecting default laminar thermophysical transport model unityLewisFourier
Selecting interfaceSurfaceTensionModel for steam_water: constant
Selecting heatTransferModel blending method for steam_water_inThe_steam: continuous
Selecting heatTransferModel for water_dispersedIn_steam_inThe_steam: RanzMarshall
Selecting heatTransferModel blending method for steam_water_inThe_water: continuous
Selecting heatTransferModel for water_dispersedIn_steam_inThe_water: spherical
Selecting saturationTemperatureModel constant
Courant Number mean: 0 max: 0

PIMPLE: No convergence criteria found


PIMPLE: No corrector convergence criteria found
        Calculations will do 5 corrections


PIMPLE: Operating solver in transient mode with 5 outer correctors



Starting time loop

Using dynamicCode for coded continuity at line 4 in "/home/as/openfoam/OpenFOAM-12/test/multiphaseEuler/thermal/waterEvaporation/system/functions/continuity"
Courant Number mean: 0 max: 0
PIMPLE: Iteration 1
MULES: Solving for alpha.steam
MULES: Solving for alpha.water
steam fraction, min, max = 0.99 0.99 0.99
water fraction, min, max = 0.01 0.01 0.01
Phase-sum volume fraction, min, max = 1 1 1
MULES: Solving for alpha.steam
MULES: Solving for alpha.water
steam fraction, min, max = 0.99 0.99 0.99
water fraction, min, max = 0.01 0.01 0.01
Phase-sum volume fraction, min, max = 1 1 1
MULES: Solving for alpha.steam
MULES: Solving for alpha.water
steam fraction, min, max = 0.99 0.99 0.99
water fraction, min, max = 0.01 0.01 0.01
Phase-sum volume fraction, min, max = 1 1 1
Constructing momentum equations
thermalPhaseChange:Tsat.steam_water: min = 372.76, mean = 372.76, max = 372.76
thermalPhaseChange:Tf.steam_water: min = 372.76, mean = 372.76, max = 372.76
thermalPhaseChange:dmdtf.steam_water: min = 4.00799417, mean = 4.00799417, max = 4.00799417, integral = 4.00799417
diagonal:  Solving for h.steam, Initial residual = 0, Final residual = 0, No Iterations 0
diagonal:  Solving for h.water, Initial residual = 0, Final residual = 0, No Iterations 0
steam min/max T 379.6034807 - 379.6034807
water min/max T 379.0986665 - 379.0986665
diagonal:  Solving for p_rgh, Initial residual = 0, Final residual = 0, No Iterations 0
PIMPLE: Iteration 2
MULES: Solving for alpha.steam
MULES: Solving for alpha.water
steam fraction, min, max = 0.9900065001 0.9900065001 0.9900065001
water fraction, min, max = 0.009993499856 0.009993499856 0.009993499856
Phase-sum volume fraction, min, max = 1 1 1
MULES: Solving for alpha.steam
MULES: Solving for alpha.water
steam fraction, min, max = 0.9900129961 0.9900129961 0.9900129961
water fraction, min, max = 0.009987003937 0.009987003937 0.009987003937
Phase-sum volume fraction, min, max = 1 1 1
MULES: Solving for alpha.steam
MULES: Solving for alpha.water
steam fraction, min, max = 0.9900194878 0.9900194878 0.9900194878
water fraction, min, max = 0.00998051224 0.00998051224 0.00998051224
Phase-sum volume fraction, min, max = 1 1 1
Constructing momentum equations
thermalPhaseChange:Tsat.steam_water: min = 372.76, mean = 372.76, max = 372.76
thermalPhaseChange:Tf.steam_water: min = 372.76, mean = 372.76, max = 372.76
thermalPhaseChange:dmdtf.steam_water: min = 3.503383695, mean = 3.503383695, max = 3.503383695, integral = 3.503383695
diagonal:  Solving for h.steam, Initial residual = 0, Final residual = 0, No Iterations 0
diagonal:  Solving for h.water, Initial residual = 0, Final residual = 0, No Iterations 0
steam min/max T 382.3870627 - 382.3870627
water min/max T 379.0972366 - 379.0972366
diagonal:  Solving for p_rgh, Initial residual = 0, Final residual = 0, No Iterations 0
PIMPLE: Iteration 3
MULES: Solving for alpha.steam
MULES: Solving for alpha.water
steam fraction, min, max = 0.9900056933 0.9900056933 0.9900056933
water fraction, min, max = 0.009994306677 0.009994306677 0.009994306677
Phase-sum volume fraction, min, max = 1 1 1
MULES: Solving for alpha.steam
MULES: Solving for alpha.water
steam fraction, min, max = 0.9900113834 0.9900113834 0.9900113834
water fraction, min, max = 0.009988616595 0.009988616595 0.009988616595
Phase-sum volume fraction, min, max = 1 1 1
MULES: Solving for alpha.steam
MULES: Solving for alpha.water
steam fraction, min, max = 0.9900170702 0.9900170702 0.9900170702
water fraction, min, max = 0.009982929752 0.009982929752 0.009982929752
Phase-sum volume fraction, min, max = 1 1 1
Constructing momentum equations
thermalPhaseChange:Tsat.steam_water: min = 372.76, mean = 372.76, max = 372.76
thermalPhaseChange:Tf.steam_water: min = 372.76, mean = 372.76, max = 372.76
thermalPhaseChange:dmdtf.steam_water: min = 3.510021286, mean = 3.510021286, max = 3.510021286, integral = 3.510021286
diagonal:  Solving for h.steam, Initial residual = 0, Final residual = 0, No Iterations 0
diagonal:  Solving for h.water, Initial residual = 0, Final residual = 0, No Iterations 0
steam min/max T 382.6338535 - 382.6338535
water min/max T 379.0971517 - 379.0971517
diagonal:  Solving for p_rgh, Initial residual = 0, Final residual = 0, No Iterations 0
PIMPLE: Iteration 4
MULES: Solving for alpha.steam
MULES: Solving for alpha.water
steam fraction, min, max = 0.9900057027 0.9900057027 0.9900057027
water fraction, min, max = 0.009994297277 0.009994297277 0.009994297277
Phase-sum volume fraction, min, max = 1 1 1
MULES: Solving for alpha.steam
MULES: Solving for alpha.water
steam fraction, min, max = 0.9900114022 0.9900114022 0.9900114022
water fraction, min, max = 0.009988597805 0.009988597805 0.009988597805
Phase-sum volume fraction, min, max = 1 1 1
MULES: Solving for alpha.steam
MULES: Solving for alpha.water
steam fraction, min, max = 0.9900170984 0.9900170984 0.9900170984
water fraction, min, max = 0.009982901584 0.009982901584 0.009982901584
Phase-sum volume fraction, min, max = 1 1 1
Constructing momentum equations
thermalPhaseChange:Tsat.steam_water: min = 372.76, mean = 372.76, max = 372.76
thermalPhaseChange:Tf.steam_water: min = 372.76, mean = 372.76, max = 372.76
thermalPhaseChange:dmdtf.steam_water: min = 3.510547697, mean = 3.510547697, max = 3.510547697, integral = 3.510547697
diagonal:  Solving for h.steam, Initial residual = 0, Final residual = 0, No Iterations 0
diagonal:  Solving for h.water, Initial residual = 0, Final residual = 0, No Iterations 0
steam min/max T 382.6921654 - 382.6921654
water min/max T 379.0971622 - 379.0971622
diagonal:  Solving for p_rgh, Initial residual = 0, Final residual = 0, No Iterations 0
PIMPLE: Iteration 5
MULES: Solving for alpha.steam
MULES: Solving for alpha.water
steam fraction, min, max = 0.9900057036 0.9900057036 0.9900057036
water fraction, min, max = 0.009994296406 0.009994296406 0.009994296406
Phase-sum volume fraction, min, max = 1 1 1
MULES: Solving for alpha.steam
MULES: Solving for alpha.water
steam fraction, min, max = 0.9900114039 0.9900114039 0.9900114039
water fraction, min, max = 0.009988596065 0.009988596065 0.009988596065
Phase-sum volume fraction, min, max = 1 1 1
MULES: Solving for alpha.steam
MULES: Solving for alpha.water
steam fraction, min, max = 0.990017101 0.990017101 0.990017101
water fraction, min, max = 0.009982898975 0.009982898975 0.009982898975
Phase-sum volume fraction, min, max = 1 1 1
Constructing momentum equations
thermalPhaseChange:Tsat.steam_water: min = 372.76, mean = 372.76, max = 372.76
thermalPhaseChange:Tf.steam_water: min = 372.76, mean = 372.76, max = 372.76
thermalPhaseChange:dmdtf.steam_water: min = 3.510690324, mean = 3.510690324, max = 3.510690324, integral = 3.510690324
diagonal:  Solving for h.steam, Initial residual = 0, Final residual = 0, No Iterations 0
diagonal:  Solving for h.water, Initial residual = 0, Final residual = 0, No Iterations 0
steam min/max T 382.7051986 - 382.7051986
water min/max T 379.0971644 - 379.0971644
diagonal:  Solving for p_rgh, Initial residual = 0, Final residual = 0, No Iterations 0
Time = 0.005s

ExecutionTime = 0.565429 s  ClockTime = 0 s

Courant Number mean: 0 max: 0
PIMPLE: Iteration 1
MULES: Solving for alpha.steam
MULES: Solving for alpha.water
steam fraction, min, max = 0.9900227951 0.9900227951 0.9900227951
water fraction, min, max = 0.009977204902 0.009977204902 0.009977204902
Phase-sum volume fraction, min, max = 1 1 1
MULES: Solving for alpha.steam
MULES: Solving for alpha.water
steam fraction, min, max = 0.9900284859 0.9900284859 0.9900284859
water fraction, min, max = 0.009971514076 0.009971514076 0.009971514076
Phase-sum volume fraction, min, max = 1 1 1
MULES: Solving for alpha.steam
MULES: Solving for alpha.water
steam fraction, min, max = 0.9900341735 0.9900341735 0.9900341735
water fraction, min, max = 0.009965826497 0.009965826497 0.009965826497
Phase-sum volume fraction, min, max = 1 1 1
Constructing momentum equations
thermalPhaseChange:Tsat.steam_water: min = 372.76, mean = 372.76, max = 372.76
thermalPhaseChange:Tf.steam_water: min = 372.76, mean = 372.76, max = 372.76
thermalPhaseChange:dmdtf.steam_water: min = 3.504718429, mean = 3.504718429, max = 3.504718429, integral = 3.504718429
diagonal:  Solving for h.steam, Initial residual = 0, Final residual = 0, No Iterations 0
diagonal:  Solving for h.water, Initial residual = 0, Final residual = 0, No Iterations 0
steam min/max T 385.2026099 - 385.2026099
water min/max T 378.3088678 - 378.3088678
diagonal:  Solving for p_rgh, Initial residual = 0, Final residual = 0, No Iterations 0
PIMPLE: Iteration 2
MULES: Solving for alpha.steam
MULES: Solving for alpha.water
steam fraction, min, max = 0.9900227952 0.9900227952 0.9900227952
water fraction, min, max = 0.00997720485 0.00997720485 0.00997720485
Phase-sum volume fraction, min, max = 1 1 1
MULES: Solving for alpha.steam
MULES: Solving for alpha.water
steam fraction, min, max = 0.990028486 0.990028486 0.990028486
water fraction, min, max = 0.009971513972 0.009971513972 0.009971513972
Phase-sum volume fraction, min, max = 1 1 1
MULES: Solving for alpha.steam
MULES: Solving for alpha.water
steam fraction, min, max = 0.9900341737 0.9900341737 0.9900341737
water fraction, min, max = 0.009965826341 0.009965826341 0.009965826341
Phase-sum volume fraction, min, max = 1 1 1
Constructing momentum equations
thermalPhaseChange:Tsat.steam_water: min = 372.76, mean = 372.76, max = 372.76
thermalPhaseChange:Tf.steam_water: min = 372.76, mean = 372.76, max = 372.76
thermalPhaseChange:dmdtf.steam_water: min = 3.07756878, mean = 3.07756878, max = 3.07756878, integral = 3.07756878
diagonal:  Solving for h.steam, Initial residual = 0, Final residual = 0, No Iterations 0
diagonal:  Solving for h.water, Initial residual = 0, Final residual = 0, No Iterations 0
steam min/max T 385.2307302 - 385.2307302
water min/max T 378.305797 - 378.305797
diagonal:  Solving for p_rgh, Initial residual = 0, Final residual = 0, No Iterations 0
PIMPLE: Iteration 3
MULES: Solving for alpha.steam
MULES: Solving for alpha.water
steam fraction, min, max = 0.9900221015 0.9900221015 0.9900221015
water fraction, min, max = 0.009977898493 0.009977898493 0.009977898493
Phase-sum volume fraction, min, max = 1 1 1
MULES: Solving for alpha.steam
MULES: Solving for alpha.water
steam fraction, min, max = 0.9900270995 0.9900270995 0.9900270995
water fraction, min, max = 0.009972900516 0.009972900516 0.009972900516
Phase-sum volume fraction, min, max = 1 1 1
MULES: Solving for alpha.steam
MULES: Solving for alpha.water
steam fraction, min, max = 0.990032095 0.990032095 0.990032095
water fraction, min, max = 0.009967905043 0.009967905043 0.009967905043
Phase-sum volume fraction, min, max = 1 1 1
Constructing momentum equations
thermalPhaseChange:Tsat.steam_water: min = 372.76, mean = 372.76, max = 372.76
thermalPhaseChange:Tf.steam_water: min = 372.76, mean = 372.76, max = 372.76
thermalPhaseChange:dmdtf.steam_water: min = 3.076589307, mean = 3.076589307, max = 3.076589307, integral = 3.076589307
diagonal:  Solving for h.steam, Initial residual = 0, Final residual = 0, No Iterations 0
diagonal:  Solving for h.water, Initial residual = 0, Final residual = 0, No Iterations 0
steam min/max T 384.9376922 - 384.9376922
water min/max T 378.3057693 - 378.3057693
diagonal:  Solving for p_rgh, Initial residual = 0, Final residual = 0, No Iterations 0
PIMPLE: Iteration 4
MULES: Solving for alpha.steam
MULES: Solving for alpha.water
steam fraction, min, max = 0.9900220989 0.9900220989 0.9900220989
water fraction, min, max = 0.009977901126 0.009977901126 0.009977901126
Phase-sum volume fraction, min, max = 1 1 1
MULES: Solving for alpha.steam
MULES: Solving for alpha.water
steam fraction, min, max = 0.9900270942 0.9900270942 0.9900270942
water fraction, min, max = 0.009972905779 0.009972905779 0.009972905779
Phase-sum volume fraction, min, max = 1 1 1
MULES: Solving for alpha.steam
MULES: Solving for alpha.water
steam fraction, min, max = 0.9900320871 0.9900320871 0.9900320871
water fraction, min, max = 0.009967912933 0.009967912933 0.009967912933
Phase-sum volume fraction, min, max = 1 1 1
Constructing momentum equations
thermalPhaseChange:Tsat.steam_water: min = 372.76, mean = 372.76, max = 372.76
thermalPhaseChange:Tf.steam_water: min = 372.76, mean = 372.76, max = 372.76
thermalPhaseChange:dmdtf.steam_water: min = 3.075885222, mean = 3.075885222, max = 3.075885222, integral = 3.075885222
diagonal:  Solving for h.steam, Initial residual = 0, Final residual = 0, No Iterations 0
diagonal:  Solving for h.water, Initial residual = 0, Final residual = 0, No Iterations 0
steam min/max T 384.8733696 - 384.8733696
water min/max T 378.3057584 - 378.3057584
diagonal:  Solving for p_rgh, Initial residual = 0, Final residual = 0, No Iterations 0
PIMPLE: Iteration 5
MULES: Solving for alpha.steam
MULES: Solving for alpha.water
steam fraction, min, max = 0.9900220977 0.9900220977 0.9900220977
water fraction, min, max = 0.009977902273 0.009977902273 0.009977902273
Phase-sum volume fraction, min, max = 1 1 1
MULES: Solving for alpha.steam
MULES: Solving for alpha.water
steam fraction, min, max = 0.9900270919 0.9900270919 0.9900270919
water fraction, min, max = 0.009972908072 0.009972908072 0.009972908072
Phase-sum volume fraction, min, max = 1 1 1
MULES: Solving for alpha.steam
MULES: Solving for alpha.water
steam fraction, min, max = 0.9900320836 0.9900320836 0.9900320836
water fraction, min, max = 0.009967916371 0.009967916371 0.009967916371
Phase-sum volume fraction, min, max = 1 1 1
Constructing momentum equations
thermalPhaseChange:Tsat.steam_water: min = 372.76, mean = 372.76, max = 372.76
thermalPhaseChange:Tf.steam_water: min = 372.76, mean = 372.76, max = 372.76
thermalPhaseChange:dmdtf.steam_water: min = 3.075728566, mean = 3.075728566, max = 3.075728566, integral = 3.075728566
diagonal:  Solving for h.steam, Initial residual = 0, Final residual = 0, No Iterations 0
diagonal:  Solving for h.water, Initial residual = 0, Final residual = 0, No Iterations 0
steam min/max T 384.8589087 - 384.8589087
water min/max T 378.3057559 - 378.3057559
diagonal:  Solving for p_rgh, Initial residual = 0, Final residual = 0, No Iterations 0
Time = 0.01s

ExecutionTime = 0.600341 s  ClockTime = 0 s

Courant Number mean: 0 max: 0
PIMPLE: Iteration 1
MULES: Solving for alpha.steam
MULES: Solving for alpha.water
steam fraction, min, max = 0.9900370726 0.9900370726 0.9900370726
water fraction, min, max = 0.009962927424 0.009962927424 0.009962927424
Phase-sum volume fraction, min, max = 1 1 1
MULES: Solving for alpha.steam
MULES: Solving for alpha.water
steam fraction, min, max = 0.990042059 0.990042059 0.990042059
water fraction, min, max = 0.009957940974 0.009957940974 0.009957940974
Phase-sum volume fraction, min, max = 1 1 1
MULES: Solving for alpha.steam
MULES: Solving for alpha.water
steam fraction, min, max = 0.990047043 0.990047043 0.990047043
water fraction, min, max = 0.009952957019 0.009952957019 0.009952957019
Phase-sum volume fraction, min, max = 1 1 1
Constructing momentum equations
thermalPhaseChange:Tsat.steam_water: min = 372.76, mean = 372.76, max = 372.76
thermalPhaseChange:Tf.steam_water: min = 372.76, mean = 372.76, max = 372.76
thermalPhaseChange:dmdtf.steam_water: min = 3.071077228, mean = 3.071077228, max = 3.071077228, integral = 3.071077228
diagonal:  Solving for h.steam, Initial residual = 0, Final residual = 0, No Iterations 0
diagonal:  Solving for h.water, Initial residual = 0, Final residual = 0, No Iterations 0
steam min/max T 386.8604596 - 386.8604596
water min/max T 377.6147643 - 377.6147643
diagonal:  Solving for p_rgh, Initial residual = 0, Final residual = 0, No Iterations 0
PIMPLE: Iteration 2
MULES: Solving for alpha.steam
MULES: Solving for alpha.water
steam fraction, min, max = 0.9900370725 0.9900370725 0.9900370725
water fraction, min, max = 0.009962927481 0.009962927481 0.009962927481
Phase-sum volume fraction, min, max = 1 1 1
MULES: Solving for alpha.steam
MULES: Solving for alpha.water
steam fraction, min, max = 0.9900420589 0.9900420589 0.9900420589
water fraction, min, max = 0.009957941089 0.009957941089 0.009957941089
Phase-sum volume fraction, min, max = 1 1 1
MULES: Solving for alpha.steam
MULES: Solving for alpha.water
steam fraction, min, max = 0.9900470428 0.9900470428 0.9900470428
water fraction, min, max = 0.009952957192 0.009952957192 0.009952957192
Phase-sum volume fraction, min, max = 1 1 1
Constructing momentum equations
thermalPhaseChange:Tsat.steam_water: min = 372.76, mean = 372.76, max = 372.76
thermalPhaseChange:Tf.steam_water: min = 372.76, mean = 372.76, max = 372.76
thermalPhaseChange:dmdtf.steam_water: min = 2.696694391, mean = 2.696694391, max = 2.696694391, integral = 2.696694391
diagonal:  Solving for h.steam, Initial residual = 0, Final residual = 0, No Iterations 0
diagonal:  Solving for h.water, Initial residual = 0, Final residual = 0, No Iterations 0
steam min/max T 386.8896151 - 386.8896151
water min/max T 377.6123136 - 377.6123136
diagonal:  Solving for p_rgh, Initial residual = 0, Final residual = 0, No Iterations 0
PIMPLE: Iteration 3
MULES: Solving for alpha.steam
MULES: Solving for alpha.water
steam fraction, min, max = 0.9900364646 0.9900364646 0.9900364646
water fraction, min, max = 0.00996353539 0.00996353539 0.00996353539
Phase-sum volume fraction, min, max = 1 1 1
MULES: Solving for alpha.steam
MULES: Solving for alpha.water
steam fraction, min, max = 0.9900408437 0.9900408437 0.9900408437
water fraction, min, max = 0.009959156334 0.009959156334 0.009959156334
Phase-sum volume fraction, min, max = 1 1 1
MULES: Solving for alpha.steam
MULES: Solving for alpha.water
steam fraction, min, max = 0.9900452208 0.9900452208 0.9900452208
water fraction, min, max = 0.009954779203 0.009954779203 0.009954779203
Phase-sum volume fraction, min, max = 1 1 1
Constructing momentum equations
thermalPhaseChange:Tsat.steam_water: min = 372.76, mean = 372.76, max = 372.76
thermalPhaseChange:Tf.steam_water: min = 372.76, mean = 372.76, max = 372.76
thermalPhaseChange:dmdtf.steam_water: min = 2.695911551, mean = 2.695911551, max = 2.695911551, integral = 2.695911551
diagonal:  Solving for h.steam, Initial residual = 0, Final residual = 0, No Iterations 0
diagonal:  Solving for h.water, Initial residual = 0, Final residual = 0, No Iterations 0
steam min/max T 386.6383144 - 386.6383144
water min/max T 377.6123053 - 377.6123053
diagonal:  Solving for p_rgh, Initial residual = 0, Final residual = 0, No Iterations 0
PIMPLE: Iteration 4
MULES: Solving for alpha.steam
MULES: Solving for alpha.water
steam fraction, min, max = 0.9900364625 0.9900364625 0.9900364625
water fraction, min, max = 0.009963537462 0.009963537462 0.009963537462
Phase-sum volume fraction, min, max = 1 1 1
MULES: Solving for alpha.steam
MULES: Solving for alpha.water
steam fraction, min, max = 0.9900408395 0.9900408395 0.9900408395
water fraction, min, max = 0.009959160477 0.009959160477 0.009959160477
Phase-sum volume fraction, min, max = 1 1 1
MULES: Solving for alpha.steam
MULES: Solving for alpha.water
steam fraction, min, max = 0.9900452146 0.9900452146 0.9900452146
water fraction, min, max = 0.009954785415 0.009954785415 0.009954785415
Phase-sum volume fraction, min, max = 1 1 1
Constructing momentum equations
thermalPhaseChange:Tsat.steam_water: min = 372.76, mean = 372.76, max = 372.76
thermalPhaseChange:Tf.steam_water: min = 372.76, mean = 372.76, max = 372.76
thermalPhaseChange:dmdtf.steam_water: min = 2.695316653, mean = 2.695316653, max = 2.695316653, integral = 2.695316653
diagonal:  Solving for h.steam, Initial residual = 0, Final residual = 0, No Iterations 0
diagonal:  Solving for h.water, Initial residual = 0, Final residual = 0, No Iterations 0
steam min/max T 386.5831822 - 386.5831822
water min/max T 377.6122961 - 377.6122961
diagonal:  Solving for p_rgh, Initial residual = 0, Final residual = 0, No Iterations 0
PIMPLE: Iteration 5
MULES: Solving for alpha.steam
MULES: Solving for alpha.water
steam fraction, min, max = 0.9900364616 0.9900364616 0.9900364616
water fraction, min, max = 0.009963538431 0.009963538431 0.009963538431
Phase-sum volume fraction, min, max = 1 1 1
MULES: Solving for alpha.steam
MULES: Solving for alpha.water
steam fraction, min, max = 0.9900408376 0.9900408376 0.9900408376
water fraction, min, max = 0.009959162414 0.009959162414 0.009959162414
Phase-sum volume fraction, min, max = 1 1 1
MULES: Solving for alpha.steam
MULES: Solving for alpha.water
steam fraction, min, max = 0.9900452117 0.9900452117 0.9900452117
water fraction, min, max = 0.009954788319 0.009954788319 0.009954788319
Phase-sum volume fraction, min, max = 1 1 1
Constructing momentum equations
thermalPhaseChange:Tsat.steam_water: min = 372.76, mean = 372.76, max = 372.76
thermalPhaseChange:Tf.steam_water: min = 372.76, mean = 372.76, max = 372.76
thermalPhaseChange:dmdtf.steam_water: min = 2.695182516, mean = 2.695182516, max = 2.695182516, integral = 2.695182516
diagonal:  Solving for h.steam, Initial residual = 0, Final residual = 0, No Iterations 0
diagonal:  Solving for h.water, Initial residual = 0, Final residual = 0, No Iterations 0
steam min/max T 386.5707963 - 386.5707963
water min/max T 377.612294 - 377.612294
diagonal:  Solving for p_rgh, Initial residual = 0, Final residual = 0, No Iterations 0
Time = 0.015s

ExecutionTime = 0.670258 s  ClockTime = 1 s

Courant Number mean: 0 max: 0
PIMPLE: Iteration 1
MULES: Solving for alpha.steam
MULES: Solving for alpha.water
steam fraction, min, max = 0.9900495836 0.9900495836 0.9900495836
water fraction, min, max = 0.009950416363 0.009950416363 0.009950416363
Phase-sum volume fraction, min, max = 1 1 1
MULES: Solving for alpha.steam
MULES: Solving for alpha.water
steam fraction, min, max = 0.9900539537 0.9900539537 0.9900539537
water fraction, min, max = 0.009946046328 0.009946046328 0.009946046328
Phase-sum volume fraction, min, max = 1 1 1
MULES: Solving for alpha.steam
MULES: Solving for alpha.water
steam fraction, min, max = 0.9900583218 0.9900583218 0.9900583218
water fraction, min, max = 0.009941678212 0.009941678212 0.009941678212
Phase-sum volume fraction, min, max = 1 1 1
Constructing momentum equations
thermalPhaseChange:Tsat.steam_water: min = 372.76, mean = 372.76, max = 372.76
thermalPhaseChange:Tf.steam_water: min = 372.76, mean = 372.76, max = 372.76
thermalPhaseChange:dmdtf.steam_water: min = 2.691602755, mean = 2.691602755, max = 2.691602755, integral = 2.691602755
diagonal:  Solving for h.steam, Initial residual = 0, Final residual = 0, No Iterations 0
diagonal:  Solving for h.water, Initial residual = 0, Final residual = 0, No Iterations 0
steam min/max T 388.174044 - 388.174044
water min/max T 377.0068287 - 377.0068287
diagonal:  Solving for p_rgh, Initial residual = 0, Final residual = 0, No Iterations 0
PIMPLE: Iteration 2
MULES: Solving for alpha.steam
MULES: Solving for alpha.water
steam fraction, min, max = 0.9900495836 0.9900495836 0.9900495836
water fraction, min, max = 0.009950416412 0.009950416412 0.009950416412
Phase-sum volume fraction, min, max = 1 1 1
MULES: Solving for alpha.steam
MULES: Solving for alpha.water
steam fraction, min, max = 0.9900539536 0.9900539536 0.9900539536
water fraction, min, max = 0.009946046426 0.009946046426 0.009946046426
Phase-sum volume fraction, min, max = 1 1 1
MULES: Solving for alpha.steam
MULES: Solving for alpha.water
steam fraction, min, max = 0.9900583216 0.9900583216 0.9900583216
water fraction, min, max = 0.00994167836 0.00994167836 0.00994167836
Phase-sum volume fraction, min, max = 1 1 1
Constructing momentum equations
thermalPhaseChange:Tsat.steam_water: min = 372.76, mean = 372.76, max = 372.76
thermalPhaseChange:Tf.steam_water: min = 372.76, mean = 372.76, max = 372.76
thermalPhaseChange:dmdtf.steam_water: min = 2.363575227, mean = 2.363575227, max = 2.363575227, integral = 2.363575227
diagonal:  Solving for h.steam, Initial residual = 0, Final residual = 0, No Iterations 0
diagonal:  Solving for h.water, Initial residual = 0, Final residual = 0, No Iterations 0
steam min/max T 388.2035564 - 388.2035564
water min/max T 377.0048678 - 377.0048678
diagonal:  Solving for p_rgh, Initial residual = 0, Final residual = 0, No Iterations 0
PIMPLE: Iteration 3
MULES: Solving for alpha.steam
MULES: Solving for alpha.water
steam fraction, min, max = 0.990049051 0.990049051 0.990049051
water fraction, min, max = 0.009950949014 0.009950949014 0.009950949014
Phase-sum volume fraction, min, max = 1 1 1
MULES: Solving for alpha.steam
MULES: Solving for alpha.water
steam fraction, min, max = 0.9900528888 0.9900528888 0.9900528888
water fraction, min, max = 0.009947111191 0.009947111191 0.009947111191
Phase-sum volume fraction, min, max = 1 1 1
MULES: Solving for alpha.steam
MULES: Solving for alpha.water
steam fraction, min, max = 0.9900567252 0.9900567252 0.9900567252
water fraction, min, max = 0.009943274847 0.009943274847 0.009943274847
Phase-sum volume fraction, min, max = 1 1 1
Constructing momentum equations
thermalPhaseChange:Tsat.steam_water: min = 372.76, mean = 372.76, max = 372.76
thermalPhaseChange:Tf.steam_water: min = 372.76, mean = 372.76, max = 372.76
thermalPhaseChange:dmdtf.steam_water: min = 2.362949178, mean = 2.362949178, max = 2.362949178, integral = 2.362949178
diagonal:  Solving for h.steam, Initial residual = 0, Final residual = 0, No Iterations 0
diagonal:  Solving for h.water, Initial residual = 0, Final residual = 0, No Iterations 0
steam min/max T 387.9876734 - 387.9876734
water min/max T 377.0048727 - 377.0048727
diagonal:  Solving for p_rgh, Initial residual = 0, Final residual = 0, No Iterations 0
PIMPLE: Iteration 4
MULES: Solving for alpha.steam
MULES: Solving for alpha.water
steam fraction, min, max = 0.9900490494 0.9900490494 0.9900490494
water fraction, min, max = 0.009950950647 0.009950950647 0.009950950647
Phase-sum volume fraction, min, max = 1 1 1
MULES: Solving for alpha.steam
MULES: Solving for alpha.water
steam fraction, min, max = 0.9900528855 0.9900528855 0.9900528855
water fraction, min, max = 0.009947114455 0.009947114455 0.009947114455
Phase-sum volume fraction, min, max = 1 1 1
MULES: Solving for alpha.steam
MULES: Solving for alpha.water
steam fraction, min, max = 0.9900567203 0.9900567203 0.9900567203
water fraction, min, max = 0.009943279741 0.009943279741 0.009943279741
Phase-sum volume fraction, min, max = 1 1 1
Constructing momentum equations
thermalPhaseChange:Tsat.steam_water: min = 372.76, mean = 372.76, max = 372.76
thermalPhaseChange:Tf.steam_water: min = 372.76, mean = 372.76, max = 372.76
thermalPhaseChange:dmdtf.steam_water: min = 2.362445014, mean = 2.362445014, max = 2.362445014, integral = 2.362445014
diagonal:  Solving for h.steam, Initial residual = 0, Final residual = 0, No Iterations 0
diagonal:  Solving for h.water, Initial residual = 0, Final residual = 0, No Iterations 0
steam min/max T 387.9403342 - 387.9403342
water min/max T 377.0048649 - 377.0048649
diagonal:  Solving for p_rgh, Initial residual = 0, Final residual = 0, No Iterations 0
PIMPLE: Iteration 5
MULES: Solving for alpha.steam
MULES: Solving for alpha.water
steam fraction, min, max = 0.9900490485 0.9900490485 0.9900490485
water fraction, min, max = 0.009950951467 0.009950951467 0.009950951467
Phase-sum volume fraction, min, max = 1 1 1
MULES: Solving for alpha.steam
MULES: Solving for alpha.water
steam fraction, min, max = 0.9900528839 0.9900528839 0.9900528839
water fraction, min, max = 0.009947116095 0.009947116095 0.009947116095
Phase-sum volume fraction, min, max = 1 1 1
MULES: Solving for alpha.steam
MULES: Solving for alpha.water
steam fraction, min, max = 0.9900567178 0.9900567178 0.9900567178
water fraction, min, max = 0.009943282201 0.009943282201 0.009943282201
Phase-sum volume fraction, min, max = 1 1 1
Constructing momentum equations
thermalPhaseChange:Tsat.steam_water: min = 372.76, mean = 372.76, max = 372.76
thermalPhaseChange:Tf.steam_water: min = 372.76, mean = 372.76, max = 372.76
thermalPhaseChange:dmdtf.steam_water: min = 2.362329937, mean = 2.362329937, max = 2.362329937, integral = 2.362329937
diagonal:  Solving for h.steam, Initial residual = 0, Final residual = 0, No Iterations 0
diagonal:  Solving for h.water, Initial residual = 0, Final residual = 0, No Iterations 0
steam min/max T 387.9297056 - 387.9297056
water min/max T 377.0048631 - 377.0048631
diagonal:  Solving for p_rgh, Initial residual = 0, Final residual = 0, No Iterations 0
Time = 0.02s

ExecutionTime = 0.742616 s  ClockTime = 1 s

Courant Number mean: 0 max: 0
PIMPLE: Iteration 1
MULES: Solving for alpha.steam
MULES: Solving for alpha.water
steam fraction, min, max = 0.99006055 0.99006055 0.99006055
water fraction, min, max = 0.009939449972 0.009939449972 0.009939449972
Phase-sum volume fraction, min, max = 1 1 1
MULES: Solving for alpha.steam
MULES: Solving for alpha.water
steam fraction, min, max = 0.9900643808 0.9900643808 0.9900643808
water fraction, min, max = 0.00993561922 0.00993561922 0.00993561922
Phase-sum volume fraction, min, max = 1 1 1
MULES: Solving for alpha.steam
MULES: Solving for alpha.water
steam fraction, min, max = 0.9900682101 0.9900682101 0.9900682101
water fraction, min, max = 0.009931789944 0.009931789944 0.009931789944
Phase-sum volume fraction, min, max = 1 1 1
Constructing momentum equations
thermalPhaseChange:Tsat.steam_water: min = 372.76, mean = 372.76, max = 372.76
thermalPhaseChange:Tf.steam_water: min = 372.76, mean = 372.76, max = 372.76
thermalPhaseChange:dmdtf.steam_water: min = 2.359573639, mean = 2.359573639, max = 2.359573639, integral = 2.359573639
diagonal:  Solving for h.steam, Initial residual = 0, Final residual = 0, No Iterations 0
diagonal:  Solving for h.water, Initial residual = 0, Final residual = 0, No Iterations 0
steam min/max T 389.2105966 - 389.2105966
water min/max T 376.4745184 - 376.4745184
diagonal:  Solving for p_rgh, Initial residual = 0, Final residual = 0, No Iterations 0
PIMPLE: Iteration 2
MULES: Solving for alpha.steam
MULES: Solving for alpha.water
steam fraction, min, max = 0.99006055 0.99006055 0.99006055
water fraction, min, max = 0.009939450014 0.009939450014 0.009939450014
Phase-sum volume fraction, min, max = 1 1 1
MULES: Solving for alpha.steam
MULES: Solving for alpha.water
steam fraction, min, max = 0.9900643807 0.9900643807 0.9900643807
water fraction, min, max = 0.009935619304 0.009935619304 0.009935619304
Phase-sum volume fraction, min, max = 1 1 1
MULES: Solving for alpha.steam
MULES: Solving for alpha.water
steam fraction, min, max = 0.9900682099 0.9900682099 0.9900682099
water fraction, min, max = 0.009931790071 0.009931790071 0.009931790071
Phase-sum volume fraction, min, max = 1 1 1
Constructing momentum equations
thermalPhaseChange:Tsat.steam_water: min = 372.76, mean = 372.76, max = 372.76
thermalPhaseChange:Tf.steam_water: min = 372.76, mean = 372.76, max = 372.76
thermalPhaseChange:dmdtf.steam_water: min = 2.072239791, mean = 2.072239791, max = 2.072239791, integral = 2.072239791
diagonal:  Solving for h.steam, Initial residual = 0, Final residual = 0, No Iterations 0
diagonal:  Solving for h.water, Initial residual = 0, Final residual = 0, No Iterations 0
steam min/max T 389.2391664 - 389.2391664
water min/max T 376.4729449 - 376.4729449
diagonal:  Solving for p_rgh, Initial residual = 0, Final residual = 0, No Iterations 0
PIMPLE: Iteration 3
MULES: Solving for alpha.steam
MULES: Solving for alpha.water
steam fraction, min, max = 0.9900600835 0.9900600835 0.9900600835
water fraction, min, max = 0.009939916515 0.009939916515 0.009939916515
Phase-sum volume fraction, min, max = 1 1 1
MULES: Solving for alpha.steam
MULES: Solving for alpha.water
steam fraction, min, max = 0.990063448 0.990063448 0.990063448
water fraction, min, max = 0.009936551969 0.009936551969 0.009936551969
Phase-sum volume fraction, min, max = 1 1 1
MULES: Solving for alpha.steam
MULES: Solving for alpha.water
steam fraction, min, max = 0.9900668114 0.9900668114 0.9900668114
water fraction, min, max = 0.009933188562 0.009933188562 0.009933188562
Phase-sum volume fraction, min, max = 1 1 1
Constructing momentum equations
thermalPhaseChange:Tsat.steam_water: min = 372.76, mean = 372.76, max = 372.76
thermalPhaseChange:Tf.steam_water: min = 372.76, mean = 372.76, max = 372.76
thermalPhaseChange:dmdtf.steam_water: min = 2.071736913, mean = 2.071736913, max = 2.071736913, integral = 2.071736913
diagonal:  Solving for h.steam, Initial residual = 0, Final residual = 0, No Iterations 0
diagonal:  Solving for h.water, Initial residual = 0, Final residual = 0, No Iterations 0
steam min/max T 389.0532633 - 389.0532633
water min/max T 376.4729583 - 376.4729583
diagonal:  Solving for p_rgh, Initial residual = 0, Final residual = 0, No Iterations 0
PIMPLE: Iteration 4
MULES: Solving for alpha.steam
MULES: Solving for alpha.water
steam fraction, min, max = 0.9900600822 0.9900600822 0.9900600822
water fraction, min, max = 0.009939917805 0.009939917805 0.009939917805
Phase-sum volume fraction, min, max = 1 1 1
MULES: Solving for alpha.steam
MULES: Solving for alpha.water
steam fraction, min, max = 0.9900634455 0.9900634455 0.9900634455
water fraction, min, max = 0.009936554548 0.009936554548 0.009936554548
Phase-sum volume fraction, min, max = 1 1 1
MULES: Solving for alpha.steam
MULES: Solving for alpha.water
steam fraction, min, max = 0.9900668076 0.9900668076 0.9900668076
water fraction, min, max = 0.009933192429 0.009933192429 0.009933192429
Phase-sum volume fraction, min, max = 1 1 1
Constructing momentum equations
thermalPhaseChange:Tsat.steam_water: min = 372.76, mean = 372.76, max = 372.76
thermalPhaseChange:Tf.steam_water: min = 372.76, mean = 372.76, max = 372.76
thermalPhaseChange:dmdtf.steam_water: min = 2.071308083, mean = 2.071308083, max = 2.071308083, integral = 2.071308083
diagonal:  Solving for h.steam, Initial residual = 0, Final residual = 0, No Iterations 0
diagonal:  Solving for h.water, Initial residual = 0, Final residual = 0, No Iterations 0
steam min/max T 389.0125154 - 389.0125154
water min/max T 376.4729517 - 376.4729517
diagonal:  Solving for p_rgh, Initial residual = 0, Final residual = 0, No Iterations 0
PIMPLE: Iteration 5
MULES: Solving for alpha.steam
MULES: Solving for alpha.water
steam fraction, min, max = 0.9900600815 0.9900600815 0.9900600815
water fraction, min, max = 0.009939918503 0.009939918503 0.009939918503
Phase-sum volume fraction, min, max = 1 1 1
MULES: Solving for alpha.steam
MULES: Solving for alpha.water
steam fraction, min, max = 0.9900634441 0.9900634441 0.9900634441
water fraction, min, max = 0.009936555943 0.009936555943 0.009936555943
Phase-sum volume fraction, min, max = 1 1 1
MULES: Solving for alpha.steam
MULES: Solving for alpha.water
steam fraction, min, max = 0.9900668055 0.9900668055 0.9900668055
water fraction, min, max = 0.00993319452 0.00993319452 0.00993319452
Phase-sum volume fraction, min, max = 1 1 1
Constructing momentum equations
thermalPhaseChange:Tsat.steam_water: min = 372.76, mean = 372.76, max = 372.76
thermalPhaseChange:Tf.steam_water: min = 372.76, mean = 372.76, max = 372.76
thermalPhaseChange:dmdtf.steam_water: min = 2.071209099, mean = 2.071209099, max = 2.071209099, integral = 2.071209099
diagonal:  Solving for h.steam, Initial residual = 0, Final residual = 0, No Iterations 0
diagonal:  Solving for h.water, Initial residual = 0, Final residual = 0, No Iterations 0
steam min/max T 389.0033716 - 389.0033716
water min/max T 376.4729502 - 376.4729502
diagonal:  Solving for p_rgh, Initial residual = 0, Final residual = 0, No Iterations 0
Time = 0.025s

ExecutionTime = 0.814285 s  ClockTime = 1 s

Courant Number mean: 0 max: 0
PIMPLE: Iteration 1
MULES: Solving for alpha.steam
MULES: Solving for alpha.water
steam fraction, min, max = 0.9900701656 0.9900701656 0.9900701656
water fraction, min, max = 0.009929834396 0.009929834396 0.009929834396
Phase-sum volume fraction, min, max = 1 1 1
MULES: Solving for alpha.steam
MULES: Solving for alpha.water
steam fraction, min, max = 0.9900735246 0.9900735246 0.9900735246
water fraction, min, max = 0.009926475409 0.009926475409 0.009926475409
Phase-sum volume fraction, min, max = 1 1 1
MULES: Solving for alpha.steam
MULES: Solving for alpha.water
steam fraction, min, max = 0.9900768824 0.9900768824 0.9900768824
water fraction, min, max = 0.009923117558 0.009923117558 0.009923117558
Phase-sum volume fraction, min, max = 1 1 1
Constructing momentum equations
thermalPhaseChange:Tsat.steam_water: min = 372.76, mean = 372.76, max = 372.76
thermalPhaseChange:Tf.steam_water: min = 372.76, mean = 372.76, max = 372.76
thermalPhaseChange:dmdtf.steam_water: min = 2.069085607, mean = 2.069085607, max = 2.069085607, integral = 2.069085607
diagonal:  Solving for h.steam, Initial residual = 0, Final residual = 0, No Iterations 0
diagonal:  Solving for h.water, Initial residual = 0, Final residual = 0, No Iterations 0
steam min/max T 390.0208742 - 390.0208742
water min/max T 376.008544 - 376.008544
diagonal:  Solving for p_rgh, Initial residual = 0, Final residual = 0, No Iterations 0
PIMPLE: Iteration 2
MULES: Solving for alpha.steam
MULES: Solving for alpha.water
steam fraction, min, max = 0.9900701656 0.9900701656 0.9900701656
water fraction, min, max = 0.009929834432 0.009929834432 0.009929834432
Phase-sum volume fraction, min, max = 1 1 1
MULES: Solving for alpha.steam
MULES: Solving for alpha.water
steam fraction, min, max = 0.9900735245 0.9900735245 0.9900735245
water fraction, min, max = 0.009926475481 0.009926475481 0.009926475481
Phase-sum volume fraction, min, max = 1 1 1
MULES: Solving for alpha.steam
MULES: Solving for alpha.water
steam fraction, min, max = 0.9900768823 0.9900768823 0.9900768823
water fraction, min, max = 0.009923117666 0.009923117666 0.009923117666
Phase-sum volume fraction, min, max = 1 1 1
Constructing momentum equations
thermalPhaseChange:Tsat.steam_water: min = 372.76, mean = 372.76, max = 372.76
thermalPhaseChange:Tf.steam_water: min = 372.76, mean = 372.76, max = 372.76
thermalPhaseChange:dmdtf.steam_water: min = 1.817451099, mean = 1.817451099, max = 1.817451099, integral = 1.817451099
diagonal:  Solving for h.steam, Initial residual = 0, Final residual = 0, No Iterations 0
diagonal:  Solving for h.water, Initial residual = 0, Final residual = 0, No Iterations 0
steam min/max T 390.0477694 - 390.0477694
water min/max T 376.0072773 - 376.0072773
diagonal:  Solving for p_rgh, Initial residual = 0, Final residual = 0, No Iterations 0
PIMPLE: Iteration 3
MULES: Solving for alpha.steam
MULES: Solving for alpha.water
steam fraction, min, max = 0.990069757 0.990069757 0.990069757
water fraction, min, max = 0.009930242952 0.009930242952 0.009930242952
Phase-sum volume fraction, min, max = 1 1 1
MULES: Solving for alpha.steam
MULES: Solving for alpha.water
steam fraction, min, max = 0.9900727077 0.9900727077 0.9900727077
water fraction, min, max = 0.009927292262 0.009927292262 0.009927292262
Phase-sum volume fraction, min, max = 1 1 1
MULES: Solving for alpha.steam
MULES: Solving for alpha.water
steam fraction, min, max = 0.9900756576 0.9900756576 0.9900756576
water fraction, min, max = 0.009924342448 0.009924342448 0.009924342448
Phase-sum volume fraction, min, max = 1 1 1
Constructing momentum equations
thermalPhaseChange:Tsat.steam_water: min = 372.76, mean = 372.76, max = 372.76
thermalPhaseChange:Tf.steam_water: min = 372.76, mean = 372.76, max = 372.76
thermalPhaseChange:dmdtf.steam_water: min = 1.817045472, mean = 1.817045472, max = 1.817045472, integral = 1.817045472
diagonal:  Solving for h.steam, Initial residual = 0, Final residual = 0, No Iterations 0
diagonal:  Solving for h.water, Initial residual = 0, Final residual = 0, No Iterations 0
steam min/max T 389.8873565 - 389.8873565
water min/max T 376.007296 - 376.007296
diagonal:  Solving for p_rgh, Initial residual = 0, Final residual = 0, No Iterations 0
PIMPLE: Iteration 4
MULES: Solving for alpha.steam
MULES: Solving for alpha.water
steam fraction, min, max = 0.990069756 0.990069756 0.990069756
water fraction, min, max = 0.009930243975 0.009930243975 0.009930243975
Phase-sum volume fraction, min, max = 1 1 1
MULES: Solving for alpha.steam
MULES: Solving for alpha.water
steam fraction, min, max = 0.9900727057 0.9900727057 0.9900727057
water fraction, min, max = 0.009927294306 0.009927294306 0.009927294306
Phase-sum volume fraction, min, max = 1 1 1
MULES: Solving for alpha.steam
MULES: Solving for alpha.water
steam fraction, min, max = 0.9900756545 0.9900756545 0.9900756545
water fraction, min, max = 0.009924345514 0.009924345514 0.009924345514
Phase-sum volume fraction, min, max = 1 1 1
Constructing momentum equations
thermalPhaseChange:Tsat.steam_water: min = 372.76, mean = 372.76, max = 372.76
thermalPhaseChange:Tf.steam_water: min = 372.76, mean = 372.76, max = 372.76
thermalPhaseChange:dmdtf.steam_water: min = 1.816679522, mean = 1.816679522, max = 1.816679522, integral = 1.816679522
diagonal:  Solving for h.steam, Initial residual = 0, Final residual = 0, No Iterations 0
diagonal:  Solving for h.water, Initial residual = 0, Final residual = 0, No Iterations 0
steam min/max T 389.8522087 - 389.8522087
water min/max T 376.0072904 - 376.0072904
diagonal:  Solving for p_rgh, Initial residual = 0, Final residual = 0, No Iterations 0
PIMPLE: Iteration 5
MULES: Solving for alpha.steam
MULES: Solving for alpha.water
steam fraction, min, max = 0.9900697554 0.9900697554 0.9900697554
water fraction, min, max = 0.00993024457 0.00993024457 0.00993024457
Phase-sum volume fraction, min, max = 1 1 1
MULES: Solving for alpha.steam
MULES: Solving for alpha.water
steam fraction, min, max = 0.9900727045 0.9900727045 0.9900727045
water fraction, min, max = 0.009927295496 0.009927295496 0.009927295496
Phase-sum volume fraction, min, max = 1 1 1
MULES: Solving for alpha.steam
MULES: Solving for alpha.water
steam fraction, min, max = 0.9900756527 0.9900756527 0.9900756527
water fraction, min, max = 0.009924347297 0.009924347297 0.009924347297
Phase-sum volume fraction, min, max = 1 1 1
Constructing momentum equations
thermalPhaseChange:Tsat.steam_water: min = 372.76, mean = 372.76, max = 372.76
thermalPhaseChange:Tf.steam_water: min = 372.76, mean = 372.76, max = 372.76
thermalPhaseChange:dmdtf.steam_water: min = 1.816594194, mean = 1.816594194, max = 1.816594194, integral = 1.816594194
diagonal:  Solving for h.steam, Initial residual = 0, Final residual = 0, No Iterations 0
diagonal:  Solving for h.water, Initial residual = 0, Final residual = 0, No Iterations 0
steam min/max T 389.8443252 - 389.8443252
water min/max T 376.0072891 - 376.0072891
diagonal:  Solving for p_rgh, Initial residual = 0, Final residual = 0, No Iterations 0
Time = 0.03s

ExecutionTime = 0.897165 s  ClockTime = 1 s

Courant Number mean: 0 max: 0
PIMPLE: Iteration 1
MULES: Solving for alpha.steam
MULES: Solving for alpha.water
steam fraction, min, max = 0.9900785999 0.9900785999 0.9900785999
water fraction, min, max = 0.009921400114 0.009921400114 0.009921400114
Phase-sum volume fraction, min, max = 1 1 1
MULES: Solving for alpha.steam
MULES: Solving for alpha.water
steam fraction, min, max = 0.9900815462 0.9900815462 0.9900815462
water fraction, min, max = 0.009918453805 0.009918453805 0.009918453805
Phase-sum volume fraction, min, max = 1 1 1
MULES: Solving for alpha.steam
MULES: Solving for alpha.water
steam fraction, min, max = 0.9900844916 0.9900844916 0.9900844916
water fraction, min, max = 0.009915508371 0.009915508371 0.009915508371
Phase-sum volume fraction, min, max = 1 1 1
Constructing momentum equations
thermalPhaseChange:Tsat.steam_water: min = 372.76, mean = 372.76, max = 372.76
thermalPhaseChange:Tf.steam_water: min = 372.76, mean = 372.76, max = 372.76
thermalPhaseChange:dmdtf.steam_water: min = 1.814957071, mean = 1.814957071, max = 1.814957071, integral = 1.814957071
diagonal:  Solving for h.steam, Initial residual = 0, Final residual = 0, No Iterations 0
diagonal:  Solving for h.water, Initial residual = 0, Final residual = 0, No Iterations 0
steam min/max T 390.6449088 - 390.6449088
water min/max T 375.6007292 - 375.6007292
diagonal:  Solving for p_rgh, Initial residual = 0, Final residual = 0, No Iterations 0
PIMPLE: Iteration 2
MULES: Solving for alpha.steam
MULES: Solving for alpha.water
steam fraction, min, max = 0.9900785999 0.9900785999 0.9900785999
water fraction, min, max = 0.009921400145 0.009921400145 0.009921400145
Phase-sum volume fraction, min, max = 1 1 1
MULES: Solving for alpha.steam
MULES: Solving for alpha.water
steam fraction, min, max = 0.9900815461 0.9900815461 0.9900815461
water fraction, min, max = 0.009918453867 0.009918453867 0.009918453867
Phase-sum volume fraction, min, max = 1 1 1
MULES: Solving for alpha.steam
MULES: Solving for alpha.water
steam fraction, min, max = 0.9900844915 0.9900844915 0.9900844915
water fraction, min, max = 0.009915508465 0.009915508465 0.009915508465
Phase-sum volume fraction, min, max = 1 1 1
Constructing momentum equations
thermalPhaseChange:Tsat.steam_water: min = 372.76, mean = 372.76, max = 372.76
thermalPhaseChange:Tf.steam_water: min = 372.76, mean = 372.76, max = 372.76
thermalPhaseChange:dmdtf.steam_water: min = 1.594623061, mean = 1.594623061, max = 1.594623061, integral = 1.594623061
diagonal:  Solving for h.steam, Initial residual = 0, Final residual = 0, No Iterations 0
diagonal:  Solving for h.water, Initial residual = 0, Final residual = 0, No Iterations 0
steam min/max T 390.66976 - 390.66976
water min/max T 375.5997064 - 375.5997064
diagonal:  Solving for p_rgh, Initial residual = 0, Final residual = 0, No Iterations 0
PIMPLE: Iteration 3
MULES: Solving for alpha.steam
MULES: Solving for alpha.water
steam fraction, min, max = 0.9900782422 0.9900782422 0.9900782422
water fraction, min, max = 0.009921757833 0.009921757833 0.009921757833
Phase-sum volume fraction, min, max = 1 1 1
MULES: Solving for alpha.steam
MULES: Solving for alpha.water
steam fraction, min, max = 0.990080831 0.990080831 0.990080831
water fraction, min, max = 0.009919169044 0.009919169044 0.009919169044
Phase-sum volume fraction, min, max = 1 1 1
MULES: Solving for alpha.steam
MULES: Solving for alpha.water
steam fraction, min, max = 0.9900834191 0.9900834191 0.9900834191
water fraction, min, max = 0.00991658093 0.00991658093 0.00991658093
Phase-sum volume fraction, min, max = 1 1 1
Constructing momentum equations
thermalPhaseChange:Tsat.steam_water: min = 372.76, mean = 372.76, max = 372.76
thermalPhaseChange:Tf.steam_water: min = 372.76, mean = 372.76, max = 372.76
thermalPhaseChange:dmdtf.steam_water: min = 1.594294599, mean = 1.594294599, max = 1.594294599, integral = 1.594294599
diagonal:  Solving for h.steam, Initial residual = 0, Final residual = 0, No Iterations 0
diagonal:  Solving for h.water, Initial residual = 0, Final residual = 0, No Iterations 0
steam min/max T 390.5311014 - 390.5311014
water min/max T 375.5997279 - 375.5997279
diagonal:  Solving for p_rgh, Initial residual = 0, Final residual = 0, No Iterations 0
PIMPLE: Iteration 4
MULES: Solving for alpha.steam
MULES: Solving for alpha.water
steam fraction, min, max = 0.9900782414 0.9900782414 0.9900782414
water fraction, min, max = 0.009921758646 0.009921758646 0.009921758646
Phase-sum volume fraction, min, max = 1 1 1
MULES: Solving for alpha.steam
MULES: Solving for alpha.water
steam fraction, min, max = 0.9900808293 0.9900808293 0.9900808293
water fraction, min, max = 0.00991917067 0.00991917067 0.00991917067
Phase-sum volume fraction, min, max = 1 1 1
MULES: Solving for alpha.steam
MULES: Solving for alpha.water
steam fraction, min, max = 0.9900834166 0.9900834166 0.9900834166
water fraction, min, max = 0.009916583369 0.009916583369 0.009916583369
Phase-sum volume fraction, min, max = 1 1 1
Constructing momentum equations
thermalPhaseChange:Tsat.steam_water: min = 372.76, mean = 372.76, max = 372.76
thermalPhaseChange:Tf.steam_water: min = 372.76, mean = 372.76, max = 372.76
thermalPhaseChange:dmdtf.steam_water: min = 1.593981393, mean = 1.593981393, max = 1.593981393, integral = 1.593981393
diagonal:  Solving for h.steam, Initial residual = 0, Final residual = 0, No Iterations 0
diagonal:  Solving for h.water, Initial residual = 0, Final residual = 0, No Iterations 0
steam min/max T 390.5007301 - 390.5007301
water min/max T 375.5997231 - 375.5997231
diagonal:  Solving for p_rgh, Initial residual = 0, Final residual = 0, No Iterations 0
PIMPLE: Iteration 5
MULES: Solving for alpha.steam
MULES: Solving for alpha.water
steam fraction, min, max = 0.9900782408 0.9900782408 0.9900782408
water fraction, min, max = 0.009921759155 0.009921759155 0.009921759155
Phase-sum volume fraction, min, max = 1 1 1
MULES: Solving for alpha.steam
MULES: Solving for alpha.water
steam fraction, min, max = 0.9900808283 0.9900808283 0.9900808283
water fraction, min, max = 0.009919171688 0.009919171688 0.009919171688
Phase-sum volume fraction, min, max = 1 1 1
MULES: Solving for alpha.steam
MULES: Solving for alpha.water
steam fraction, min, max = 0.9900834151 0.9900834151 0.9900834151
water fraction, min, max = 0.009916584895 0.009916584895 0.009916584895
Phase-sum volume fraction, min, max = 1 1 1
Constructing momentum equations
thermalPhaseChange:Tsat.steam_water: min = 372.76, mean = 372.76, max = 372.76
thermalPhaseChange:Tf.steam_water: min = 372.76, mean = 372.76, max = 372.76
thermalPhaseChange:dmdtf.steam_water: min = 1.593907698, mean = 1.593907698, max = 1.593907698, integral = 1.593907698
diagonal:  Solving for h.steam, Initial residual = 0, Final residual = 0, No Iterations 0
diagonal:  Solving for h.water, Initial residual = 0, Final residual = 0, No Iterations 0
steam min/max T 390.4939206 - 390.4939206
water min/max T 375.599722 - 375.599722
diagonal:  Solving for p_rgh, Initial residual = 0, Final residual = 0, No Iterations 0
Time = 0.035s

ExecutionTime = 0.983511 s  ClockTime = 1 s

Courant Number mean: 0 max: 0
PIMPLE: Iteration 1
MULES: Solving for alpha.steam
MULES: Solving for alpha.water
steam fraction, min, max = 0.9900860011 0.9900860011 0.9900860011
water fraction, min, max = 0.009913998897 0.009913998897 0.009913998897
Phase-sum volume fraction, min, max = 1 1 1
MULES: Solving for alpha.steam
MULES: Solving for alpha.water
steam fraction, min, max = 0.9900885864 0.9900885864 0.9900885864
water fraction, min, max = 0.009911413573 0.009911413573 0.009911413573
Phase-sum volume fraction, min, max = 1 1 1
MULES: Solving for alpha.steam
MULES: Solving for alpha.water
steam fraction, min, max = 0.9900911711 0.9900911711 0.9900911711
water fraction, min, max = 0.009908828923 0.009908828923 0.009908828923
Phase-sum volume fraction, min, max = 1 1 1
Constructing momentum equations
thermalPhaseChange:Tsat.steam_water: min = 372.76, mean = 372.76, max = 372.76
thermalPhaseChange:Tf.steam_water: min = 372.76, mean = 372.76, max = 372.76
thermalPhaseChange:dmdtf.steam_water: min = 1.592644494, mean = 1.592644494, max = 1.592644494, integral = 1.592644494
diagonal:  Solving for h.steam, Initial residual = 0, Final residual = 0, No Iterations 0
diagonal:  Solving for h.water, Initial residual = 0, Final residual = 0, No Iterations 0
steam min/max T 391.1146834 - 391.1146834
water min/max T 375.2438843 - 375.2438843
diagonal:  Solving for p_rgh, Initial residual = 0, Final residual = 0, No Iterations 0
PIMPLE: Iteration 2
MULES: Solving for alpha.steam
MULES: Solving for alpha.water
steam fraction, min, max = 0.9900860011 0.9900860011 0.9900860011
water fraction, min, max = 0.009913998924 0.009913998924 0.009913998924
Phase-sum volume fraction, min, max = 1 1 1
MULES: Solving for alpha.steam
MULES: Solving for alpha.water
steam fraction, min, max = 0.9900885864 0.9900885864 0.9900885864
water fraction, min, max = 0.009911413627 0.009911413627 0.009911413627
Phase-sum volume fraction, min, max = 1 1 1
MULES: Solving for alpha.steam
MULES: Solving for alpha.water
steam fraction, min, max = 0.990091171 0.990091171 0.990091171
water fraction, min, max = 0.009908829004 0.009908829004 0.009908829004
Phase-sum volume fraction, min, max = 1 1 1
Constructing momentum equations
thermalPhaseChange:Tsat.steam_water: min = 372.76, mean = 372.76, max = 372.76
thermalPhaseChange:Tf.steam_water: min = 372.76, mean = 372.76, max = 372.76
thermalPhaseChange:dmdtf.steam_water: min = 1.39974145, mean = 1.39974145, max = 1.39974145, integral = 1.39974145
diagonal:  Solving for h.steam, Initial residual = 0, Final residual = 0, No Iterations 0
diagonal:  Solving for h.water, Initial residual = 0, Final residual = 0, No Iterations 0
steam min/max T 391.1373503 - 391.1373503
water min/max T 375.2430558 - 375.2430558
diagonal:  Solving for p_rgh, Initial residual = 0, Final residual = 0, No Iterations 0
PIMPLE: Iteration 3
MULES: Solving for alpha.steam
MULES: Solving for alpha.water
steam fraction, min, max = 0.9900856879 0.9900856879 0.9900856879
water fraction, min, max = 0.009914312068 0.009914312068 0.009914312068
Phase-sum volume fraction, min, max = 1 1 1
MULES: Solving for alpha.steam
MULES: Solving for alpha.water
steam fraction, min, max = 0.9900879602 0.9900879602 0.9900879602
water fraction, min, max = 0.009912039762 0.009912039762 0.009912039762
Phase-sum volume fraction, min, max = 1 1 1
MULES: Solving for alpha.steam
MULES: Solving for alpha.water
steam fraction, min, max = 0.990090232 0.990090232 0.990090232
water fraction, min, max = 0.009909767977 0.009909767977 0.009909767977
Phase-sum volume fraction, min, max = 1 1 1
Constructing momentum equations
thermalPhaseChange:Tsat.steam_water: min = 372.76, mean = 372.76, max = 372.76
thermalPhaseChange:Tf.steam_water: min = 372.76, mean = 372.76, max = 372.76
thermalPhaseChange:dmdtf.steam_water: min = 1.399474524, mean = 1.399474524, max = 1.399474524, integral = 1.399474524
diagonal:  Solving for h.steam, Initial residual = 0, Final residual = 0, No Iterations 0
diagonal:  Solving for h.water, Initial residual = 0, Final residual = 0, No Iterations 0
steam min/max T 391.0173174 - 391.0173174
water min/max T 375.2430785 - 375.2430785
diagonal:  Solving for p_rgh, Initial residual = 0, Final residual = 0, No Iterations 0
PIMPLE: Iteration 4
MULES: Solving for alpha.steam
MULES: Solving for alpha.water
steam fraction, min, max = 0.9900856873 0.9900856873 0.9900856873
water fraction, min, max = 0.009914312717 0.009914312717 0.009914312717
Phase-sum volume fraction, min, max = 1 1 1
MULES: Solving for alpha.steam
MULES: Solving for alpha.water
steam fraction, min, max = 0.9900879589 0.9900879589 0.9900879589
water fraction, min, max = 0.009912041059 0.009912041059 0.009912041059
Phase-sum volume fraction, min, max = 1 1 1
MULES: Solving for alpha.steam
MULES: Solving for alpha.water
steam fraction, min, max = 0.9900902301 0.9900902301 0.9900902301
water fraction, min, max = 0.009909769921 0.009909769921 0.009909769921
Phase-sum volume fraction, min, max = 1 1 1
Constructing momentum equations
thermalPhaseChange:Tsat.steam_water: min = 372.76, mean = 372.76, max = 372.76
thermalPhaseChange:Tf.steam_water: min = 372.76, mean = 372.76, max = 372.76
thermalPhaseChange:dmdtf.steam_water: min = 1.399205751, mean = 1.399205751, max = 1.399205751, integral = 1.399205751
diagonal:  Solving for h.steam, Initial residual = 0, Final residual = 0, No Iterations 0
diagonal:  Solving for h.water, Initial residual = 0, Final residual = 0, No Iterations 0
steam min/max T 390.9910334 - 390.9910334
water min/max T 375.2430743 - 375.2430743
diagonal:  Solving for p_rgh, Initial residual = 0, Final residual = 0, No Iterations 0
PIMPLE: Iteration 5
MULES: Solving for alpha.steam
MULES: Solving for alpha.water
steam fraction, min, max = 0.9900856868 0.9900856868 0.9900856868
water fraction, min, max = 0.009914313153 0.009914313153 0.009914313153
Phase-sum volume fraction, min, max = 1 1 1
MULES: Solving for alpha.steam
MULES: Solving for alpha.water
steam fraction, min, max = 0.9900879581 0.9900879581 0.9900879581
water fraction, min, max = 0.009912041932 0.009912041932 0.009912041932
Phase-sum volume fraction, min, max = 1 1 1
MULES: Solving for alpha.steam
MULES: Solving for alpha.water
steam fraction, min, max = 0.9900902288 0.9900902288 0.9900902288
water fraction, min, max = 0.009909771231 0.009909771231 0.009909771231
Phase-sum volume fraction, min, max = 1 1 1
Constructing momentum equations
thermalPhaseChange:Tsat.steam_water: min = 372.76, mean = 372.76, max = 372.76
thermalPhaseChange:Tf.steam_water: min = 372.76, mean = 372.76, max = 372.76
thermalPhaseChange:dmdtf.steam_water: min = 1.399142002, mean = 1.399142002, max = 1.399142002, integral = 1.399142002
diagonal:  Solving for h.steam, Initial residual = 0, Final residual = 0, No Iterations 0
diagonal:  Solving for h.water, Initial residual = 0, Final residual = 0, No Iterations 0
steam min/max T 390.9851423 - 390.9851423
water min/max T 375.2430734 - 375.2430734
diagonal:  Solving for p_rgh, Initial residual = 0, Final residual = 0, No Iterations 0
Time = 0.04s

ExecutionTime = 1.016249 s  ClockTime = 1 s

Courant Number mean: 0 max: 0
PIMPLE: Iteration 1
MULES: Solving for alpha.steam
MULES: Solving for alpha.water
steam fraction, min, max = 0.9900924988 0.9900924988 0.9900924988
water fraction, min, max = 0.009907501154 0.009907501154 0.009907501154
Phase-sum volume fraction, min, max = 1 1 1
MULES: Solving for alpha.steam
MULES: Solving for alpha.water
steam fraction, min, max = 0.9900947684 0.9900947684 0.9900947684
water fraction, min, max = 0.009905231597 0.009905231597 0.009905231597
Phase-sum volume fraction, min, max = 1 1 1
MULES: Solving for alpha.steam
MULES: Solving for alpha.water
steam fraction, min, max = 0.9900970374 0.9900970374 0.9900970374
water fraction, min, max = 0.00990296256 0.00990296256 0.00990296256
Phase-sum volume fraction, min, max = 1 1 1
Constructing momentum equations
thermalPhaseChange:Tsat.steam_water: min = 372.76, mean = 372.76, max = 372.76
thermalPhaseChange:Tf.steam_water: min = 372.76, mean = 372.76, max = 372.76
thermalPhaseChange:dmdtf.steam_water: min = 1.398166371, mean = 1.398166371, max = 1.398166371, integral = 1.398166371
diagonal:  Solving for h.steam, Initial residual = 0, Final residual = 0, No Iterations 0
diagonal:  Solving for h.water, Initial residual = 0, Final residual = 0, No Iterations 0
steam min/max T 391.4560401 - 391.4560401
water min/max T 374.9316921 - 374.9316921
diagonal:  Solving for p_rgh, Initial residual = 0, Final residual = 0, No Iterations 0
PIMPLE: Iteration 2
MULES: Solving for alpha.steam
MULES: Solving for alpha.water
steam fraction, min, max = 0.9900924988 0.9900924988 0.9900924988
water fraction, min, max = 0.009907501177 0.009907501177 0.009907501177
Phase-sum volume fraction, min, max = 1 1 1
MULES: Solving for alpha.steam
MULES: Solving for alpha.water
steam fraction, min, max = 0.9900947684 0.9900947684 0.9900947684
water fraction, min, max = 0.009905231643 0.009905231643 0.009905231643
Phase-sum volume fraction, min, max = 1 1 1
MULES: Solving for alpha.steam
MULES: Solving for alpha.water
steam fraction, min, max = 0.9900970374 0.9900970374 0.9900970374
water fraction, min, max = 0.009902962629 0.009902962629 0.009902962629
Phase-sum volume fraction, min, max = 1 1 1
Constructing momentum equations
thermalPhaseChange:Tsat.steam_water: min = 372.76, mean = 372.76, max = 372.76
thermalPhaseChange:Tf.steam_water: min = 372.76, mean = 372.76, max = 372.76
thermalPhaseChange:dmdtf.steam_water: min = 1.229293831, mean = 1.229293831, max = 1.229293831, integral = 1.229293831
diagonal:  Solving for h.steam, Initial residual = 0, Final residual = 0, No Iterations 0
diagonal:  Solving for h.water, Initial residual = 0, Final residual = 0, No Iterations 0
steam min/max T 391.4765249 - 391.4765249
water min/max T 374.9310188 - 374.9310188
diagonal:  Solving for p_rgh, Initial residual = 0, Final residual = 0, No Iterations 0
PIMPLE: Iteration 3
MULES: Solving for alpha.steam
MULES: Solving for alpha.water
steam fraction, min, max = 0.9900922247 0.9900922247 0.9900922247
water fraction, min, max = 0.009907775302 0.009907775302 0.009907775302
Phase-sum volume fraction, min, max = 1 1 1
MULES: Solving for alpha.steam
MULES: Solving for alpha.water
steam fraction, min, max = 0.9900942202 0.9900942202 0.9900942202
water fraction, min, max = 0.009905779776 0.009905779776 0.009905779776
Phase-sum volume fraction, min, max = 1 1 1
MULES: Solving for alpha.steam
MULES: Solving for alpha.water
steam fraction, min, max = 0.9900962153 0.9900962153 0.9900962153
water fraction, min, max = 0.009903784651 0.009903784651 0.009903784651
Phase-sum volume fraction, min, max = 1 1 1
Constructing momentum equations
thermalPhaseChange:Tsat.steam_water: min = 372.76, mean = 372.76, max = 372.76
thermalPhaseChange:Tf.steam_water: min = 372.76, mean = 372.76, max = 372.76
thermalPhaseChange:dmdtf.steam_water: min = 1.22907622, mean = 1.22907622, max = 1.22907622, integral = 1.22907622
diagonal:  Solving for h.steam, Initial residual = 0, Final residual = 0, No Iterations 0
diagonal:  Solving for h.water, Initial residual = 0, Final residual = 0, No Iterations 0
steam min/max T 391.3724825 - 391.3724825
water min/max T 374.9310416 - 374.9310416
diagonal:  Solving for p_rgh, Initial residual = 0, Final residual = 0, No Iterations 0
PIMPLE: Iteration 4
MULES: Solving for alpha.steam
MULES: Solving for alpha.water
steam fraction, min, max = 0.9900922242 0.9900922242 0.9900922242
water fraction, min, max = 0.009907775821 0.009907775821 0.009907775821
Phase-sum volume fraction, min, max = 1 1 1
MULES: Solving for alpha.steam
MULES: Solving for alpha.water
steam fraction, min, max = 0.9900942192 0.9900942192 0.9900942192
water fraction, min, max = 0.009905780813 0.009905780813 0.009905780813
Phase-sum volume fraction, min, max = 1 1 1
MULES: Solving for alpha.steam
MULES: Solving for alpha.water
steam fraction, min, max = 0.9900962138 0.9900962138 0.9900962138
water fraction, min, max = 0.009903786207 0.009903786207 0.009903786207
Phase-sum volume fraction, min, max = 1 1 1
Constructing momentum equations
thermalPhaseChange:Tsat.steam_water: min = 372.76, mean = 372.76, max = 372.76
thermalPhaseChange:Tf.steam_water: min = 372.76, mean = 372.76, max = 372.76
thermalPhaseChange:dmdtf.steam_water: min = 1.228845029, mean = 1.228845029, max = 1.228845029, integral = 1.228845029
diagonal:  Solving for h.steam, Initial residual = 0, Final residual = 0, No Iterations 0
diagonal:  Solving for h.water, Initial residual = 0, Final residual = 0, No Iterations 0
steam min/max T 391.3497059 - 391.3497059
water min/max T 374.931038 - 374.931038
diagonal:  Solving for p_rgh, Initial residual = 0, Final residual = 0, No Iterations 0
PIMPLE: Iteration 5
MULES: Solving for alpha.steam
MULES: Solving for alpha.water
steam fraction, min, max = 0.9900922238 0.9900922238 0.9900922238
water fraction, min, max = 0.009907776197 0.009907776197 0.009907776197
Phase-sum volume fraction, min, max = 1 1 1
MULES: Solving for alpha.steam
MULES: Solving for alpha.water
steam fraction, min, max = 0.9900942184 0.9900942184 0.9900942184
water fraction, min, max = 0.009905781564 0.009905781564 0.009905781564
Phase-sum volume fraction, min, max = 1 1 1
MULES: Solving for alpha.steam
MULES: Solving for alpha.water
steam fraction, min, max = 0.9900962127 0.9900962127 0.9900962127
water fraction, min, max = 0.009903787333 0.009903787333 0.009903787333
Phase-sum volume fraction, min, max = 1 1 1
Constructing momentum equations
thermalPhaseChange:Tsat.steam_water: min = 372.76, mean = 372.76, max = 372.76
thermalPhaseChange:Tf.steam_water: min = 372.76, mean = 372.76, max = 372.76
thermalPhaseChange:dmdtf.steam_water: min = 1.228789806, mean = 1.228789806, max = 1.228789806, integral = 1.228789806
diagonal:  Solving for h.steam, Initial residual = 0, Final residual = 0, No Iterations 0
diagonal:  Solving for h.water, Initial residual = 0, Final residual = 0, No Iterations 0
steam min/max T 391.3446025 - 391.3446025
water min/max T 374.9310372 - 374.9310372
diagonal:  Solving for p_rgh, Initial residual = 0, Final residual = 0, No Iterations 0
Time = 0.045s

ExecutionTime = 1.084286 s  ClockTime = 1 s

Courant Number mean: 0 max: 0
PIMPLE: Iteration 1
MULES: Solving for alpha.steam
MULES: Solving for alpha.water
steam fraction, min, max = 0.9900982064 0.9900982064 0.9900982064
water fraction, min, max = 0.009901793593 0.009901793593 0.009901793593
Phase-sum volume fraction, min, max = 1 1 1
MULES: Solving for alpha.steam
MULES: Solving for alpha.water
steam fraction, min, max = 0.9901001997 0.9901001997 0.9901001997
water fraction, min, max = 0.009899800255 0.009899800255 0.009899800255
Phase-sum volume fraction, min, max = 1 1 1
MULES: Solving for alpha.steam
MULES: Solving for alpha.water
steam fraction, min, max = 0.9901021927 0.9901021927 0.9901021927
water fraction, min, max = 0.009897807318 0.009897807318 0.009897807318
Phase-sum volume fraction, min, max = 1 1 1
Constructing momentum equations
thermalPhaseChange:Tsat.steam_water: min = 372.76, mean = 372.76, max = 372.76
thermalPhaseChange:Tf.steam_water: min = 372.76, mean = 372.76, max = 372.76
thermalPhaseChange:dmdtf.steam_water: min = 1.228035448, mean = 1.228035448, max = 1.228035448, integral = 1.228035448
diagonal:  Solving for h.steam, Initial residual = 0, Final residual = 0, No Iterations 0
diagonal:  Solving for h.water, Initial residual = 0, Final residual = 0, No Iterations 0
steam min/max T 391.6900667 - 391.6900667
water min/max T 374.6586058 - 374.6586058
diagonal:  Solving for p_rgh, Initial residual = 0, Final residual = 0, No Iterations 0
PIMPLE: Iteration 2
MULES: Solving for alpha.steam
MULES: Solving for alpha.water
steam fraction, min, max = 0.9900982064 0.9900982064 0.9900982064
water fraction, min, max = 0.009901793614 0.009901793614 0.009901793614
Phase-sum volume fraction, min, max = 1 1 1
MULES: Solving for alpha.steam
MULES: Solving for alpha.water
steam fraction, min, max = 0.9901001997 0.9901001997 0.9901001997
water fraction, min, max = 0.009899800295 0.009899800295 0.009899800295
Phase-sum volume fraction, min, max = 1 1 1
MULES: Solving for alpha.steam
MULES: Solving for alpha.water
steam fraction, min, max = 0.9901021926 0.9901021926 0.9901021926
water fraction, min, max = 0.009897807378 0.009897807378 0.009897807378
Phase-sum volume fraction, min, max = 1 1 1
Constructing momentum equations
thermalPhaseChange:Tsat.steam_water: min = 372.76, mean = 372.76, max = 372.76
thermalPhaseChange:Tf.steam_water: min = 372.76, mean = 372.76, max = 372.76
thermalPhaseChange:dmdtf.steam_water: min = 1.080207646, mean = 1.080207646, max = 1.080207646, integral = 1.080207646
diagonal:  Solving for h.steam, Initial residual = 0, Final residual = 0, No Iterations 0
diagonal:  Solving for h.water, Initial residual = 0, Final residual = 0, No Iterations 0
steam min/max T 391.7084571 - 391.7084571
water min/max T 374.658057 - 374.658057
diagonal:  Solving for p_rgh, Initial residual = 0, Final residual = 0, No Iterations 0
PIMPLE: Iteration 3
MULES: Solving for alpha.steam
MULES: Solving for alpha.water
steam fraction, min, max = 0.9900979664 0.9900979664 0.9900979664
water fraction, min, max = 0.00990203357 0.00990203357 0.00990203357
Phase-sum volume fraction, min, max = 1 1 1
MULES: Solving for alpha.steam
MULES: Solving for alpha.water
steam fraction, min, max = 0.9900997199 0.9900997199 0.9900997199
water fraction, min, max = 0.009900280117 0.009900280117 0.009900280117
Phase-sum volume fraction, min, max = 1 1 1
MULES: Solving for alpha.steam
MULES: Solving for alpha.water
steam fraction, min, max = 0.990101473 0.990101473 0.990101473
water fraction, min, max = 0.009898526975 0.009898526975 0.009898526975
Phase-sum volume fraction, min, max = 1 1 1
Constructing momentum equations
thermalPhaseChange:Tsat.steam_water: min = 372.76, mean = 372.76, max = 372.76
thermalPhaseChange:Tf.steam_water: min = 372.76, mean = 372.76, max = 372.76
thermalPhaseChange:dmdtf.steam_water: min = 1.080029755, mean = 1.080029755, max = 1.080029755, integral = 1.080029755
diagonal:  Solving for h.steam, Initial residual = 0, Final residual = 0, No Iterations 0
diagonal:  Solving for h.water, Initial residual = 0, Final residual = 0, No Iterations 0
steam min/max T 391.618175 - 391.618175
water min/max T 374.6580791 - 374.6580791
diagonal:  Solving for p_rgh, Initial residual = 0, Final residual = 0, No Iterations 0
PIMPLE: Iteration 4
MULES: Solving for alpha.steam
MULES: Solving for alpha.water
steam fraction, min, max = 0.990097966 0.990097966 0.990097966
water fraction, min, max = 0.009902033986 0.009902033986 0.009902033986
Phase-sum volume fraction, min, max = 1 1 1
MULES: Solving for alpha.steam
MULES: Solving for alpha.water
steam fraction, min, max = 0.9900997191 0.9900997191 0.9900997191
water fraction, min, max = 0.00990028095 0.00990028095 0.00990028095
Phase-sum volume fraction, min, max = 1 1 1
MULES: Solving for alpha.steam
MULES: Solving for alpha.water
steam fraction, min, max = 0.9901014718 0.9901014718 0.9901014718
water fraction, min, max = 0.009898528223 0.009898528223 0.009898528223
Phase-sum volume fraction, min, max = 1 1 1
Constructing momentum equations
thermalPhaseChange:Tsat.steam_water: min = 372.76, mean = 372.76, max = 372.76
thermalPhaseChange:Tf.steam_water: min = 372.76, mean = 372.76, max = 372.76
thermalPhaseChange:dmdtf.steam_water: min = 1.079830465, mean = 1.079830465, max = 1.079830465, integral = 1.079830465
diagonal:  Solving for h.steam, Initial residual = 0, Final residual = 0, No Iterations 0
diagonal:  Solving for h.water, Initial residual = 0, Final residual = 0, No Iterations 0
steam min/max T 391.5984155 - 391.5984155
water min/max T 374.6580759 - 374.6580759
diagonal:  Solving for p_rgh, Initial residual = 0, Final residual = 0, No Iterations 0
PIMPLE: Iteration 5
MULES: Solving for alpha.steam
MULES: Solving for alpha.water
steam fraction, min, max = 0.9900979657 0.9900979657 0.9900979657
water fraction, min, max = 0.00990203431 0.00990203431 0.00990203431
Phase-sum volume fraction, min, max = 1 1 1
MULES: Solving for alpha.steam
MULES: Solving for alpha.water
steam fraction, min, max = 0.9900997184 0.9900997184 0.9900997184
water fraction, min, max = 0.009900281597 0.009900281597 0.009900281597
Phase-sum volume fraction, min, max = 1 1 1
MULES: Solving for alpha.steam
MULES: Solving for alpha.water
steam fraction, min, max = 0.9901014708 0.9901014708 0.9901014708
water fraction, min, max = 0.009898529194 0.009898529194 0.009898529194
Phase-sum volume fraction, min, max = 1 1 1
Constructing momentum equations
thermalPhaseChange:Tsat.steam_water: min = 372.76, mean = 372.76, max = 372.76
thermalPhaseChange:Tf.steam_water: min = 372.76, mean = 372.76, max = 372.76
thermalPhaseChange:dmdtf.steam_water: min = 1.079782572, mean = 1.079782572, max = 1.079782572, integral = 1.079782572
diagonal:  Solving for h.steam, Initial residual = 0, Final residual = 0, No Iterations 0
diagonal:  Solving for h.water, Initial residual = 0, Final residual = 0, No Iterations 0
steam min/max T 391.5939891 - 391.5939891
water min/max T 374.6580752 - 374.6580752
diagonal:  Solving for p_rgh, Initial residual = 0, Final residual = 0, No Iterations 0
Time = 0.05s

ExecutionTime = 1.16068 s  ClockTime = 1 s

Courant Number mean: 0 max: 0
PIMPLE: Iteration 1
MULES: Solving for alpha.steam
MULES: Solving for alpha.water
steam fraction, min, max = 0.9901032228 0.9901032228 0.9901032228
water fraction, min, max = 0.009896777179 0.009896777179 0.009896777179
Phase-sum volume fraction, min, max = 1 1 1
MULES: Solving for alpha.steam
MULES: Solving for alpha.water
steam fraction, min, max = 0.9901049745 0.9901049745 0.9901049745
water fraction, min, max = 0.009895025475 0.009895025475 0.009895025475
Phase-sum volume fraction, min, max = 1 1 1
MULES: Solving for alpha.steam
MULES: Solving for alpha.water
steam fraction, min, max = 0.9901067259 0.9901067259 0.9901067259
water fraction, min, max = 0.00989327408 0.00989327408 0.00989327408
Phase-sum volume fraction, min, max = 1 1 1
Constructing momentum equations
thermalPhaseChange:Tsat.steam_water: min = 372.76, mean = 372.76, max = 372.76
thermalPhaseChange:Tf.steam_water: min = 372.76, mean = 372.76, max = 372.76
thermalPhaseChange:dmdtf.steam_water: min = 1.079198568, mean = 1.079198568, max = 1.079198568, integral = 1.079198568
diagonal:  Solving for h.steam, Initial residual = 0, Final residual = 0, No Iterations 0
diagonal:  Solving for h.water, Initial residual = 0, Final residual = 0, No Iterations 0
steam min/max T 391.8341211 - 391.8341211
water min/max T 374.4197579 - 374.4197579
diagonal:  Solving for p_rgh, Initial residual = 0, Final residual = 0, No Iterations 0
PIMPLE: Iteration 2
MULES: Solving for alpha.steam
MULES: Solving for alpha.water
steam fraction, min, max = 0.9901032228 0.9901032228 0.9901032228
water fraction, min, max = 0.009896777197 0.009896777197 0.009896777197
Phase-sum volume fraction, min, max = 1 1 1
MULES: Solving for alpha.steam
MULES: Solving for alpha.water
steam fraction, min, max = 0.9901049745 0.9901049745 0.9901049745
water fraction, min, max = 0.00989502551 0.00989502551 0.00989502551
Phase-sum volume fraction, min, max = 1 1 1
MULES: Solving for alpha.steam
MULES: Solving for alpha.water
steam fraction, min, max = 0.9901067259 0.9901067259 0.9901067259
water fraction, min, max = 0.009893274133 0.009893274133 0.009893274133
Phase-sum volume fraction, min, max = 1 1 1
Constructing momentum equations
thermalPhaseChange:Tsat.steam_water: min = 372.76, mean = 372.76, max = 372.76
thermalPhaseChange:Tf.steam_water: min = 372.76, mean = 372.76, max = 372.76
thermalPhaseChange:dmdtf.steam_water: min = 0.9497956866, mean = 0.9497956866, max = 0.9497956866, integral = 0.9497956866
diagonal:  Solving for h.steam, Initial residual = 0, Final residual = 0, No Iterations 0
diagonal:  Solving for h.water, Initial residual = 0, Final residual = 0, No Iterations 0
steam min/max T 391.8505531 - 391.8505531
water min/max T 374.4193093 - 374.4193093
diagonal:  Solving for p_rgh, Initial residual = 0, Final residual = 0, No Iterations 0
PIMPLE: Iteration 3
MULES: Solving for alpha.steam
MULES: Solving for alpha.water
steam fraction, min, max = 0.9901030128 0.9901030128 0.9901030128
water fraction, min, max = 0.00989698724 0.00989698724 0.00989698724
Phase-sum volume fraction, min, max = 1 1 1
MULES: Solving for alpha.steam
MULES: Solving for alpha.water
steam fraction, min, max = 0.9901045545 0.9901045545 0.9901045545
water fraction, min, max = 0.009895445526 0.009895445526 0.009895445526
Phase-sum volume fraction, min, max = 1 1 1
MULES: Solving for alpha.steam
MULES: Solving for alpha.water
steam fraction, min, max = 0.9901060959 0.9901060959 0.9901060959
water fraction, min, max = 0.009893904052 0.009893904052 0.009893904052
Phase-sum volume fraction, min, max = 1 1 1
Constructing momentum equations
thermalPhaseChange:Tsat.steam_water: min = 372.76, mean = 372.76, max = 372.76
thermalPhaseChange:Tf.steam_water: min = 372.76, mean = 372.76, max = 372.76
thermalPhaseChange:dmdtf.steam_water: min = 0.949649948, mean = 0.949649948, max = 0.949649948, integral = 0.949649948
diagonal:  Solving for h.steam, Initial residual = 0, Final residual = 0, No Iterations 0
diagonal:  Solving for h.water, Initial residual = 0, Final residual = 0, No Iterations 0
steam min/max T 391.772136 - 391.772136
water min/max T 374.4193302 - 374.4193302
diagonal:  Solving for p_rgh, Initial residual = 0, Final residual = 0, No Iterations 0
PIMPLE: Iteration 4
MULES: Solving for alpha.steam
MULES: Solving for alpha.water
steam fraction, min, max = 0.9901030124 0.9901030124 0.9901030124
water fraction, min, max = 0.009896987575 0.009896987575 0.009896987575
Phase-sum volume fraction, min, max = 1 1 1
MULES: Solving for alpha.steam
MULES: Solving for alpha.water
steam fraction, min, max = 0.9901045538 0.9901045538 0.9901045538
water fraction, min, max = 0.009895446195 0.009895446195 0.009895446195
Phase-sum volume fraction, min, max = 1 1 1
MULES: Solving for alpha.steam
MULES: Solving for alpha.water
steam fraction, min, max = 0.9901060949 0.9901060949 0.9901060949
water fraction, min, max = 0.009893905056 0.009893905056 0.009893905056
Phase-sum volume fraction, min, max = 1 1 1
Constructing momentum equations
thermalPhaseChange:Tsat.steam_water: min = 372.76, mean = 372.76, max = 372.76
thermalPhaseChange:Tf.steam_water: min = 372.76, mean = 372.76, max = 372.76
thermalPhaseChange:dmdtf.steam_water: min = 0.9494778235, mean = 0.9494778235, max = 0.9494778235, integral = 0.9494778235
diagonal:  Solving for h.steam, Initial residual = 0, Final residual = 0, No Iterations 0
diagonal:  Solving for h.water, Initial residual = 0, Final residual = 0, No Iterations 0
steam min/max T 391.754977 - 391.754977
water min/max T 374.4193275 - 374.4193275
diagonal:  Solving for p_rgh, Initial residual = 0, Final residual = 0, No Iterations 0
PIMPLE: Iteration 5
[...]
MULES: Solving for alpha.water
steam fraction, min, max = 0.9901485223 0.9901485223 0.9901485223
water fraction, min, max = 0.009851477704 0.009851477704 0.009851477704
Phase-sum volume fraction, min, max = 1 1 1
MULES: Solving for alpha.steam
MULES: Solving for alpha.water
steam fraction, min, max = 0.9901485241 0.9901485241 0.9901485241
water fraction, min, max = 0.009851475889 0.009851475889 0.009851475889
Phase-sum volume fraction, min, max = 1 1 1
MULES: Solving for alpha.steam
MULES: Solving for alpha.water
steam fraction, min, max = 0.9901485259 0.9901485259 0.9901485259
water fraction, min, max = 0.009851474074 0.009851474074 0.009851474074
Phase-sum volume fraction, min, max = 1 1 1
Constructing momentum equations
thermalPhaseChange:Tsat.steam_water: min = 372.76, mean = 372.76, max = 372.76
thermalPhaseChange:Tf.steam_water: min = 372.76, mean = 372.76, max = 372.76
thermalPhaseChange:dmdtf.steam_water: min = 0.001095111315, mean = 0.001095111315, max = 0.001095111315, integral = 0.001095111315
diagonal:  Solving for h.steam, Initial residual = 0, Final residual = 0, No Iterations 0
diagonal:  Solving for h.water, Initial residual = 0, Final residual = 0, No Iterations 0
steam min/max T 373.2299333 - 373.2299333
water min/max T 372.7600001 - 372.7600001
diagonal:  Solving for p_rgh, Initial residual = 0, Final residual = 0, No Iterations 0
PIMPLE: Iteration 3
MULES: Solving for alpha.steam
MULES: Solving for alpha.water
steam fraction, min, max = 0.9901485223 0.9901485223 0.9901485223
water fraction, min, max = 0.009851477742 0.009851477742 0.009851477742
Phase-sum volume fraction, min, max = 1 1 1
MULES: Solving for alpha.steam
MULES: Solving for alpha.water
steam fraction, min, max = 0.990148524 0.990148524 0.990148524
water fraction, min, max = 0.009851475965 0.009851475965 0.009851475965
Phase-sum volume fraction, min, max = 1 1 1
MULES: Solving for alpha.steam
MULES: Solving for alpha.water
steam fraction, min, max = 0.9901485258 0.9901485258 0.9901485258
water fraction, min, max = 0.009851474188 0.009851474188 0.009851474188
Phase-sum volume fraction, min, max = 1 1 1
Constructing momentum equations
thermalPhaseChange:Tsat.steam_water: min = 372.76, mean = 372.76, max = 372.76
thermalPhaseChange:Tf.steam_water: min = 372.76, mean = 372.76, max = 372.76
thermalPhaseChange:dmdtf.steam_water: min = 0.001095500756, mean = 0.001095500756, max = 0.001095500756, integral = 0.001095500756
diagonal:  Solving for h.steam, Initial residual = 0, Final residual = 0, No Iterations 0
diagonal:  Solving for h.water, Initial residual = 0, Final residual = 0, No Iterations 0
steam min/max T 373.2299284 - 373.2299284
water min/max T 372.76 - 372.76
diagonal:  Solving for p_rgh, Initial residual = 0, Final residual = 0, No Iterations 0
PIMPLE: Iteration 4
MULES: Solving for alpha.steam
MULES: Solving for alpha.water
steam fraction, min, max = 0.9901485223 0.9901485223 0.9901485223
water fraction, min, max = 0.009851477741 0.009851477741 0.009851477741
Phase-sum volume fraction, min, max = 1 1 1
MULES: Solving for alpha.steam
MULES: Solving for alpha.water
steam fraction, min, max = 0.990148524 0.990148524 0.990148524
water fraction, min, max = 0.009851475963 0.009851475963 0.009851475963
Phase-sum volume fraction, min, max = 1 1 1
MULES: Solving for alpha.steam
MULES: Solving for alpha.water
steam fraction, min, max = 0.9901485258 0.9901485258 0.9901485258
water fraction, min, max = 0.009851474186 0.009851474186 0.009851474186
Phase-sum volume fraction, min, max = 1 1 1
Constructing momentum equations
thermalPhaseChange:Tsat.steam_water: min = 372.76, mean = 372.76, max = 372.76
thermalPhaseChange:Tf.steam_water: min = 372.76, mean = 372.76, max = 372.76
thermalPhaseChange:dmdtf.steam_water: min = 0.001095452334, mean = 0.001095452334, max = 0.001095452334, integral = 0.001095452334
diagonal:  Solving for h.steam, Initial residual = 0, Final residual = 0, No Iterations 0
diagonal:  Solving for h.water, Initial residual = 0, Final residual = 0, No Iterations 0
steam min/max T 373.2299275 - 373.2299275
water min/max T 372.76 - 372.76
diagonal:  Solving for p_rgh, Initial residual = 0, Final residual = 0, No Iterations 0
PIMPLE: Iteration 5
MULES: Solving for alpha.steam
MULES: Solving for alpha.water
steam fraction, min, max = 0.9901485223 0.9901485223 0.9901485223
water fraction, min, max = 0.009851477741 0.009851477741 0.009851477741
Phase-sum volume fraction, min, max = 1 1 1
MULES: Solving for alpha.steam
MULES: Solving for alpha.water
steam fraction, min, max = 0.990148524 0.990148524 0.990148524
water fraction, min, max = 0.009851475964 0.009851475964 0.009851475964
Phase-sum volume fraction, min, max = 1 1 1
MULES: Solving for alpha.steam
MULES: Solving for alpha.water
steam fraction, min, max = 0.9901485258 0.9901485258 0.9901485258
water fraction, min, max = 0.009851474186 0.009851474186 0.009851474186
Phase-sum volume fraction, min, max = 1 1 1
Constructing momentum equations
thermalPhaseChange:Tsat.steam_water: min = 372.76, mean = 372.76, max = 372.76
thermalPhaseChange:Tf.steam_water: min = 372.76, mean = 372.76, max = 372.76
thermalPhaseChange:dmdtf.steam_water: min = 0.001095450255, mean = 0.001095450255, max = 0.001095450255, integral = 0.001095450255
diagonal:  Solving for h.steam, Initial residual = 0, Final residual = 0, No Iterations 0
diagonal:  Solving for h.water, Initial residual = 0, Final residual = 0, No Iterations 0
steam min/max T 373.2299273 - 373.2299273
water min/max T 372.76 - 372.76
diagonal:  Solving for p_rgh, Initial residual = 0, Final residual = 0, No Iterations 0
Time = 0.99s

ExecutionTime = 12.266376 s  ClockTime = 15 s

Courant Number mean: 0 max: 0
PIMPLE: Iteration 1
MULES: Solving for alpha.steam
MULES: Solving for alpha.water
steam fraction, min, max = 0.9901485276 0.9901485276 0.9901485276
water fraction, min, max = 0.009851472408 0.009851472408 0.009851472408
Phase-sum volume fraction, min, max = 1 1 1
MULES: Solving for alpha.steam
MULES: Solving for alpha.water
steam fraction, min, max = 0.9901485294 0.9901485294 0.9901485294
water fraction, min, max = 0.00985147063 0.00985147063 0.00985147063
Phase-sum volume fraction, min, max = 1 1 1
MULES: Solving for alpha.steam
MULES: Solving for alpha.water
steam fraction, min, max = 0.9901485311 0.9901485311 0.9901485311
water fraction, min, max = 0.009851468853 0.009851468853 0.009851468853
Phase-sum volume fraction, min, max = 1 1 1
Constructing momentum equations
thermalPhaseChange:Tsat.steam_water: min = 372.76, mean = 372.76, max = 372.76
thermalPhaseChange:Tf.steam_water: min = 372.76, mean = 372.76, max = 372.76
thermalPhaseChange:dmdtf.steam_water: min = 0.00109544915, mean = 0.00109544915, max = 0.00109544915, integral = 0.00109544915
diagonal:  Solving for h.steam, Initial residual = 0, Final residual = 0, No Iterations 0
diagonal:  Solving for h.water, Initial residual = 0, Final residual = 0, No Iterations 0
steam min/max T 373.2202414 - 373.2202414
water min/max T 372.7599995 - 372.7599995
diagonal:  Solving for p_rgh, Initial residual = 0, Final residual = 0, No Iterations 0
PIMPLE: Iteration 2
MULES: Solving for alpha.steam
MULES: Solving for alpha.water
steam fraction, min, max = 0.9901485276 0.9901485276 0.9901485276
water fraction, min, max = 0.009851472408 0.009851472408 0.009851472408
Phase-sum volume fraction, min, max = 1 1 1
MULES: Solving for alpha.steam
MULES: Solving for alpha.water
steam fraction, min, max = 0.9901485294 0.9901485294 0.9901485294
water fraction, min, max = 0.00985147063 0.00985147063 0.00985147063
Phase-sum volume fraction, min, max = 1 1 1
MULES: Solving for alpha.steam
MULES: Solving for alpha.water
steam fraction, min, max = 0.9901485311 0.9901485311 0.9901485311
water fraction, min, max = 0.009851468853 0.009851468853 0.009851468853
Phase-sum volume fraction, min, max = 1 1 1
Constructing momentum equations
thermalPhaseChange:Tsat.steam_water: min = 372.76, mean = 372.76, max = 372.76
thermalPhaseChange:Tf.steam_water: min = 372.76, mean = 372.76, max = 372.76
thermalPhaseChange:dmdtf.steam_water: min = 0.001072612234, mean = 0.001072612234, max = 0.001072612234, integral = 0.001072612234
diagonal:  Solving for h.steam, Initial residual = 0, Final residual = 0, No Iterations 0
diagonal:  Solving for h.water, Initial residual = 0, Final residual = 0, No Iterations 0
steam min/max T 373.2202788 - 373.2202788
water min/max T 372.7600001 - 372.7600001
diagonal:  Solving for p_rgh, Initial residual = 0, Final residual = 0, No Iterations 0
PIMPLE: Iteration 3
MULES: Solving for alpha.steam
MULES: Solving for alpha.water
steam fraction, min, max = 0.9901485276 0.9901485276 0.9901485276
water fraction, min, max = 0.009851472445 0.009851472445 0.009851472445
Phase-sum volume fraction, min, max = 1 1 1
MULES: Solving for alpha.steam
MULES: Solving for alpha.water
steam fraction, min, max = 0.9901485293 0.9901485293 0.9901485293
water fraction, min, max = 0.009851470704 0.009851470704 0.009851470704
Phase-sum volume fraction, min, max = 1 1 1
MULES: Solving for alpha.steam
MULES: Solving for alpha.water
steam fraction, min, max = 0.990148531 0.990148531 0.990148531
water fraction, min, max = 0.009851468964 0.009851468964 0.009851468964
Phase-sum volume fraction, min, max = 1 1 1
Constructing momentum equations
thermalPhaseChange:Tsat.steam_water: min = 372.76, mean = 372.76, max = 372.76
thermalPhaseChange:Tf.steam_water: min = 372.76, mean = 372.76, max = 372.76
thermalPhaseChange:dmdtf.steam_water: min = 0.001072993668, mean = 0.001072993668, max = 0.001072993668, integral = 0.001072993668
diagonal:  Solving for h.steam, Initial residual = 0, Final residual = 0, No Iterations 0
diagonal:  Solving for h.water, Initial residual = 0, Final residual = 0, No Iterations 0
steam min/max T 373.220274 - 373.220274
water min/max T 372.76 - 372.76
diagonal:  Solving for p_rgh, Initial residual = 0, Final residual = 0, No Iterations 0
PIMPLE: Iteration 4
MULES: Solving for alpha.steam
MULES: Solving for alpha.water
steam fraction, min, max = 0.9901485276 0.9901485276 0.9901485276
water fraction, min, max = 0.009851472445 0.009851472445 0.009851472445
Phase-sum volume fraction, min, max = 1 1 1
MULES: Solving for alpha.steam
MULES: Solving for alpha.water
steam fraction, min, max = 0.9901485293 0.9901485293 0.9901485293
water fraction, min, max = 0.009851470703 0.009851470703 0.009851470703
Phase-sum volume fraction, min, max = 1 1 1
MULES: Solving for alpha.steam
MULES: Solving for alpha.water
steam fraction, min, max = 0.990148531 0.990148531 0.990148531
water fraction, min, max = 0.009851468962 0.009851468962 0.009851468962
Phase-sum volume fraction, min, max = 1 1 1
Constructing momentum equations
thermalPhaseChange:Tsat.steam_water: min = 372.76, mean = 372.76, max = 372.76
thermalPhaseChange:Tf.steam_water: min = 372.76, mean = 372.76, max = 372.76
thermalPhaseChange:dmdtf.steam_water: min = 0.001072946241, mean = 0.001072946241, max = 0.001072946241, integral = 0.001072946241
diagonal:  Solving for h.steam, Initial residual = 0, Final residual = 0, No Iterations 0
diagonal:  Solving for h.water, Initial residual = 0, Final residual = 0, No Iterations 0
steam min/max T 373.2202731 - 373.2202731
water min/max T 372.76 - 372.76
diagonal:  Solving for p_rgh, Initial residual = 0, Final residual = 0, No Iterations 0
PIMPLE: Iteration 5
MULES: Solving for alpha.steam
MULES: Solving for alpha.water
steam fraction, min, max = 0.9901485276 0.9901485276 0.9901485276
water fraction, min, max = 0.009851472445 0.009851472445 0.009851472445
Phase-sum volume fraction, min, max = 1 1 1
MULES: Solving for alpha.steam
MULES: Solving for alpha.water
steam fraction, min, max = 0.9901485293 0.9901485293 0.9901485293
water fraction, min, max = 0.009851470703 0.009851470703 0.009851470703
Phase-sum volume fraction, min, max = 1 1 1
MULES: Solving for alpha.steam
MULES: Solving for alpha.water
steam fraction, min, max = 0.990148531 0.990148531 0.990148531
water fraction, min, max = 0.009851468962 0.009851468962 0.009851468962
Phase-sum volume fraction, min, max = 1 1 1
Constructing momentum equations
thermalPhaseChange:Tsat.steam_water: min = 372.76, mean = 372.76, max = 372.76
thermalPhaseChange:Tf.steam_water: min = 372.76, mean = 372.76, max = 372.76
thermalPhaseChange:dmdtf.steam_water: min = 0.001072944205, mean = 0.001072944205, max = 0.001072944205, integral = 0.001072944205
diagonal:  Solving for h.steam, Initial residual = 0, Final residual = 0, No Iterations 0
diagonal:  Solving for h.water, Initial residual = 0, Final residual = 0, No Iterations 0
steam min/max T 373.2202729 - 373.2202729
water min/max T 372.76 - 372.76
diagonal:  Solving for p_rgh, Initial residual = 0, Final residual = 0, No Iterations 0
Time = 0.995s

ExecutionTime = 12.34486 s  ClockTime = 15 s

Courant Number mean: 0 max: 0
PIMPLE: Iteration 1
MULES: Solving for alpha.steam
MULES: Solving for alpha.water
steam fraction, min, max = 0.9901485328 0.9901485328 0.9901485328
water fraction, min, max = 0.009851467221 0.009851467221 0.009851467221
Phase-sum volume fraction, min, max = 1 1 1
MULES: Solving for alpha.steam
MULES: Solving for alpha.water
steam fraction, min, max = 0.9901485345 0.9901485345 0.9901485345
water fraction, min, max = 0.00985146548 0.00985146548 0.00985146548
Phase-sum volume fraction, min, max = 1 1 1
MULES: Solving for alpha.steam
MULES: Solving for alpha.water
steam fraction, min, max = 0.9901485363 0.9901485363 0.9901485363
water fraction, min, max = 0.009851463738 0.009851463738 0.009851463738
Phase-sum volume fraction, min, max = 1 1 1
Constructing momentum equations
thermalPhaseChange:Tsat.steam_water: min = 372.76, mean = 372.76, max = 372.76
thermalPhaseChange:Tf.steam_water: min = 372.76, mean = 372.76, max = 372.76
thermalPhaseChange:dmdtf.steam_water: min = 0.001072943135, mean = 0.001072943135, max = 0.001072943135, integral = 0.001072943135
diagonal:  Solving for h.steam, Initial residual = 0, Final residual = 0, No Iterations 0
diagonal:  Solving for h.water, Initial residual = 0, Final residual = 0, No Iterations 0
steam min/max T 373.2107861 - 373.2107861
water min/max T 372.7599995 - 372.7599995
diagonal:  Solving for p_rgh, Initial residual = 0, Final residual = 0, No Iterations 0
PIMPLE: Iteration 2
MULES: Solving for alpha.steam
MULES: Solving for alpha.water
steam fraction, min, max = 0.9901485328 0.9901485328 0.9901485328
water fraction, min, max = 0.009851467221 0.009851467221 0.009851467221
Phase-sum volume fraction, min, max = 1 1 1
MULES: Solving for alpha.steam
MULES: Solving for alpha.water
steam fraction, min, max = 0.9901485345 0.9901485345 0.9901485345
water fraction, min, max = 0.00985146548 0.00985146548 0.00985146548
Phase-sum volume fraction, min, max = 1 1 1
MULES: Solving for alpha.steam
MULES: Solving for alpha.water
steam fraction, min, max = 0.9901485363 0.9901485363 0.9901485363
water fraction, min, max = 0.009851463738 0.009851463738 0.009851463738
Phase-sum volume fraction, min, max = 1 1 1
Constructing momentum equations
thermalPhaseChange:Tsat.steam_water: min = 372.76, mean = 372.76, max = 372.76
thermalPhaseChange:Tf.steam_water: min = 372.76, mean = 372.76, max = 372.76
thermalPhaseChange:dmdtf.steam_water: min = 0.00105057574, mean = 0.00105057574, max = 0.00105057574, integral = 0.00105057574
diagonal:  Solving for h.steam, Initial residual = 0, Final residual = 0, No Iterations 0
diagonal:  Solving for h.water, Initial residual = 0, Final residual = 0, No Iterations 0
steam min/max T 373.2108227 - 373.2108227
water min/max T 372.7600001 - 372.7600001
diagonal:  Solving for p_rgh, Initial residual = 0, Final residual = 0, No Iterations 0
PIMPLE: Iteration 3
MULES: Solving for alpha.steam
MULES: Solving for alpha.water
steam fraction, min, max = 0.9901485327 0.9901485327 0.9901485327
water fraction, min, max = 0.009851467257 0.009851467257 0.009851467257
Phase-sum volume fraction, min, max = 1 1 1
MULES: Solving for alpha.steam
MULES: Solving for alpha.water
steam fraction, min, max = 0.9901485344 0.9901485344 0.9901485344
water fraction, min, max = 0.009851465552 0.009851465552 0.009851465552
Phase-sum volume fraction, min, max = 1 1 1
MULES: Solving for alpha.steam
MULES: Solving for alpha.water
steam fraction, min, max = 0.9901485362 0.9901485362 0.9901485362
water fraction, min, max = 0.009851463847 0.009851463847 0.009851463847
Phase-sum volume fraction, min, max = 1 1 1
Constructing momentum equations
thermalPhaseChange:Tsat.steam_water: min = 372.76, mean = 372.76, max = 372.76
thermalPhaseChange:Tf.steam_water: min = 372.76, mean = 372.76, max = 372.76
thermalPhaseChange:dmdtf.steam_water: min = 0.001050949331, mean = 0.001050949331, max = 0.001050949331, integral = 0.001050949331
diagonal:  Solving for h.steam, Initial residual = 0, Final residual = 0, No Iterations 0
diagonal:  Solving for h.water, Initial residual = 0, Final residual = 0, No Iterations 0
steam min/max T 373.210818 - 373.210818
water min/max T 372.76 - 372.76
diagonal:  Solving for p_rgh, Initial residual = 0, Final residual = 0, No Iterations 0
PIMPLE: Iteration 4
MULES: Solving for alpha.steam
MULES: Solving for alpha.water
steam fraction, min, max = 0.9901485327 0.9901485327 0.9901485327
water fraction, min, max = 0.009851467257 0.009851467257 0.009851467257
Phase-sum volume fraction, min, max = 1 1 1
MULES: Solving for alpha.steam
MULES: Solving for alpha.water
steam fraction, min, max = 0.9901485344 0.9901485344 0.9901485344
water fraction, min, max = 0.009851465551 0.009851465551 0.009851465551
Phase-sum volume fraction, min, max = 1 1 1
MULES: Solving for alpha.steam
MULES: Solving for alpha.water
steam fraction, min, max = 0.9901485362 0.9901485362 0.9901485362
water fraction, min, max = 0.009851463846 0.009851463846 0.009851463846
Phase-sum volume fraction, min, max = 1 1 1
Constructing momentum equations
thermalPhaseChange:Tsat.steam_water: min = 372.76, mean = 372.76, max = 372.76
thermalPhaseChange:Tf.steam_water: min = 372.76, mean = 372.76, max = 372.76
thermalPhaseChange:dmdtf.steam_water: min = 0.001050902878, mean = 0.001050902878, max = 0.001050902878, integral = 0.001050902878
diagonal:  Solving for h.steam, Initial residual = 0, Final residual = 0, No Iterations 0
diagonal:  Solving for h.water, Initial residual = 0, Final residual = 0, No Iterations 0
steam min/max T 373.2108172 - 373.2108172
water min/max T 372.76 - 372.76
diagonal:  Solving for p_rgh, Initial residual = 0, Final residual = 0, No Iterations 0
PIMPLE: Iteration 5
MULES: Solving for alpha.steam
MULES: Solving for alpha.water
steam fraction, min, max = 0.9901485327 0.9901485327 0.9901485327
water fraction, min, max = 0.009851467257 0.009851467257 0.009851467257
Phase-sum volume fraction, min, max = 1 1 1
MULES: Solving for alpha.steam
MULES: Solving for alpha.water
steam fraction, min, max = 0.9901485344 0.9901485344 0.9901485344
water fraction, min, max = 0.009851465551 0.009851465551 0.009851465551
Phase-sum volume fraction, min, max = 1 1 1
MULES: Solving for alpha.steam
MULES: Solving for alpha.water
steam fraction, min, max = 0.9901485362 0.9901485362 0.9901485362
water fraction, min, max = 0.009851463846 0.009851463846 0.009851463846
Phase-sum volume fraction, min, max = 1 1 1
Constructing momentum equations
thermalPhaseChange:Tsat.steam_water: min = 372.76, mean = 372.76, max = 372.76
thermalPhaseChange:Tf.steam_water: min = 372.76, mean = 372.76, max = 372.76
thermalPhaseChange:dmdtf.steam_water: min = 0.001050900884, mean = 0.001050900884, max = 0.001050900884, integral = 0.001050900884
diagonal:  Solving for h.steam, Initial residual = 0, Final residual = 0, No Iterations 0
diagonal:  Solving for h.water, Initial residual = 0, Final residual = 0, No Iterations 0
steam min/max T 373.210817 - 373.210817
water min/max T 372.76 - 372.76
diagonal:  Solving for p_rgh, Initial residual = 0, Final residual = 0, No Iterations 0
Time = 1s

ExecutionTime = 12.422972 s  ClockTime = 15 s

End

