/*---------------------------------------------------------------------------*\
  =========                 |
  \\      /  F ield         | OpenFOAM: The Open Source CFD Toolbox
   \\    /   O peration     | Website:  https://openfoam.org
    \\  /    A nd           | Version:  12
     \\/     M anipulation  |
\*---------------------------------------------------------------------------*/
Build  : 12-cc05c1b03c38
Exec   : foamRun
Date   : Oct 15 2024
Time   : 06:10:07
Host   : "DESKTOP-KBPC6IC"
PID    : 249436
I/O    : uncollated
Case   : /home/as/openfoam/OpenFOAM-12/test/multiphaseEuler/thermal/waterEvaporation
nProcs : 1
sigFpe : Enabling floating point exception trapping (FOAM_SIGFPE).
fileModificationChecking : Monitoring run-time modified files using timeStampMaster (fileModificationSkew 10)
allowSystemOperations : Allowing user-supplied system call operations

// * * * * * * * * * * * * * * * * * * * * * * * * * * * * * * * * * * * * * //
Create time

Create mesh for time = 0

Selecting solver multiphaseEuler
Selecting phaseSystem thermalPhaseChangeMultiphaseSystem
No MRF models present

Selecting phaseModel for steam: purePhaseModel
Selecting diameterModel for phase steam: none
Selecting thermodynamics package 
{
    type            heRhoThermo;
    mixture         pureMixture;
    transport       const;
    thermo          eConst;
    equationOfState perfectGas;
    specie          specie;
    energy          sensibleInternalEnergy;
}

Calculating face flux field phi.steam
Selecting turbulence model type laminar
Selecting laminar stress model Stokes
Selecting thermophysical transport type laminar
Selecting default laminar thermophysical transport model unityLewisFourier
Selecting phaseModel for water: purePhaseModel
Selecting diameterModel for phase water: constant
Selecting thermodynamics package 
{
    type            heRhoThermo;
    mixture         pureMixture;
    transport       const;
    thermo          hConst;
    equationOfState rhoConst;
    specie          specie;
    energy          sensibleEnthalpy;
}

Calculating face flux field phi.water
Selecting turbulence model type laminar
Selecting laminar stress model Stokes
Selecting thermophysical transport type laminar
Selecting default laminar thermophysical transport model unityLewisFourier
Selecting interfaceSurfaceTensionModel for steam_water: constant
Selecting heatTransferModel blending method for steam_water_inThe_steam: continuous
Selecting heatTransferModel for water_dispersedIn_steam_inThe_steam: RanzMarshall
Selecting heatTransferModel blending method for steam_water_inThe_water: continuous
Selecting heatTransferModel for water_dispersedIn_steam_inThe_water: spherical
Selecting saturationTemperatureModel constant
Courant Number mean: 0 max: 0

PIMPLE: No convergence criteria found


PIMPLE: No corrector convergence criteria found
        Calculations will do 5 corrections


PIMPLE: Operating solver in transient mode with 5 outer correctors



Starting time loop

Using dynamicCode for coded continuity at line 4 in "/home/as/openfoam/OpenFOAM-12/test/multiphaseEuler/thermal/waterEvaporation/system/functions/continuity"
Courant Number mean: 0 max: 0
PIMPLE: Iteration 1
MULES: Solving for alpha.steam
MULES: Solving for alpha.water
steam fraction, min, max = 0.99 0.99 0.99
water fraction, min, max = 0.01 0.01 0.01
Phase-sum volume fraction, min, max = 1 1 1
MULES: Solving for alpha.steam
MULES: Solving for alpha.water
steam fraction, min, max = 0.99 0.99 0.99
water fraction, min, max = 0.01 0.01 0.01
Phase-sum volume fraction, min, max = 1 1 1
MULES: Solving for alpha.steam
MULES: Solving for alpha.water
steam fraction, min, max = 0.99 0.99 0.99
water fraction, min, max = 0.01 0.01 0.01
Phase-sum volume fraction, min, max = 1 1 1
Constructing momentum equations
thermalPhaseChange:Tsat.steam_water: min = 372.76, mean = 372.76, max = 372.76
thermalPhaseChange:Tf.steam_water: min = 372.76, mean = 372.76, max = 372.76
thermalPhaseChange:dmdtf.steam_water: min = 4.007988223, mean = 4.007988223, max = 4.007988223, integral = 4.007988223
diagonal:  Solving for e.steam, Initial residual = 0, Final residual = 0, No Iterations 0
diagonal:  Solving for h.water, Initial residual = 0, Final residual = 0, No Iterations 0
steam min/max T 383.1098254 - 383.1098254
water min/max T 379.0986665 - 379.0986665
diagonal:  Solving for p_rgh, Initial residual = 0, Final residual = 0, No Iterations 0
PIMPLE: Iteration 2
MULES: Solving for alpha.steam
MULES: Solving for alpha.water
steam fraction, min, max = 0.9900065001 0.9900065001 0.9900065001
water fraction, min, max = 0.009993499865 0.009993499865 0.009993499865
Phase-sum volume fraction, min, max = 1 1 1
MULES: Solving for alpha.steam
MULES: Solving for alpha.water
steam fraction, min, max = 0.990012996 0.990012996 0.990012996
water fraction, min, max = 0.009987003956 0.009987003956 0.009987003956
Phase-sum volume fraction, min, max = 1 1 1
MULES: Solving for alpha.steam
MULES: Solving for alpha.water
steam fraction, min, max = 0.9900194877 0.9900194877 0.9900194877
water fraction, min, max = 0.009980512269 0.009980512269 0.009980512269
Phase-sum volume fraction, min, max = 1 1 1
Constructing momentum equations
thermalPhaseChange:Tsat.steam_water: min = 372.76, mean = 372.76, max = 372.76
thermalPhaseChange:Tf.steam_water: min = 372.76, mean = 372.76, max = 372.76
thermalPhaseChange:dmdtf.steam_water: min = 3.511660675, mean = 3.511660675, max = 3.511660675, integral = 3.511660675
diagonal:  Solving for e.steam, Initial residual = 0, Final residual = 0, No Iterations 0
diagonal:  Solving for h.water, Initial residual = 0, Final residual = 0, No Iterations 0
steam min/max T 382.7095019 - 382.7095019
water min/max T 379.0972302 - 379.0972302
diagonal:  Solving for p_rgh, Initial residual = 0, Final residual = 0, No Iterations 0
PIMPLE: Iteration 3
MULES: Solving for alpha.steam
MULES: Solving for alpha.water
steam fraction, min, max = 0.9900057068 0.9900057068 0.9900057068
water fraction, min, max = 0.009994293233 0.009994293233 0.009994293233
Phase-sum volume fraction, min, max = 1 1 1
MULES: Solving for alpha.steam
MULES: Solving for alpha.water
steam fraction, min, max = 0.9900114103 0.9900114103 0.9900114103
water fraction, min, max = 0.009988589724 0.009988589724 0.009988589724
Phase-sum volume fraction, min, max = 1 1 1
MULES: Solving for alpha.steam
MULES: Solving for alpha.water
steam fraction, min, max = 0.9900171105 0.9900171105 0.9900171105
water fraction, min, max = 0.009982889469 0.009982889469 0.009982889469
Phase-sum volume fraction, min, max = 1 1 1
Constructing momentum equations
thermalPhaseChange:Tsat.steam_water: min = 372.76, mean = 372.76, max = 372.76
thermalPhaseChange:Tf.steam_water: min = 372.76, mean = 372.76, max = 372.76
thermalPhaseChange:dmdtf.steam_water: min = 3.510760274, mean = 3.510760274, max = 3.510760274, integral = 3.510760274
diagonal:  Solving for e.steam, Initial residual = 0, Final residual = 0, No Iterations 0
diagonal:  Solving for h.water, Initial residual = 0, Final residual = 0, No Iterations 0
steam min/max T 382.7088933 - 382.7088933
water min/max T 379.0971823 - 379.0971823
diagonal:  Solving for p_rgh, Initial residual = 0, Final residual = 0, No Iterations 0
PIMPLE: Iteration 4
MULES: Solving for alpha.steam
MULES: Solving for alpha.water
steam fraction, min, max = 0.9900057039 0.9900057039 0.9900057039
water fraction, min, max = 0.009994296054 0.009994296054 0.009994296054
Phase-sum volume fraction, min, max = 1 1 1
MULES: Solving for alpha.steam
MULES: Solving for alpha.water
steam fraction, min, max = 0.9900114046 0.9900114046 0.9900114046
water fraction, min, max = 0.009988595361 0.009988595361 0.009988595361
Phase-sum volume fraction, min, max = 1 1 1
MULES: Solving for alpha.steam
MULES: Solving for alpha.water
steam fraction, min, max = 0.9900171021 0.9900171021 0.9900171021
water fraction, min, max = 0.00998289792 0.00998289792 0.00998289792
Phase-sum volume fraction, min, max = 1 1 1
Constructing momentum equations
thermalPhaseChange:Tsat.steam_water: min = 372.76, mean = 372.76, max = 372.76
thermalPhaseChange:Tf.steam_water: min = 372.76, mean = 372.76, max = 372.76
thermalPhaseChange:dmdtf.steam_water: min = 3.510735436, mean = 3.510735436, max = 3.510735436, integral = 3.510735436
diagonal:  Solving for e.steam, Initial residual = 0, Final residual = 0, No Iterations 0
diagonal:  Solving for h.water, Initial residual = 0, Final residual = 0, No Iterations 0
steam min/max T 382.7088722 - 382.7088722
water min/max T 379.0971652 - 379.0971652
diagonal:  Solving for p_rgh, Initial residual = 0, Final residual = 0, No Iterations 0
PIMPLE: Iteration 5
MULES: Solving for alpha.steam
MULES: Solving for alpha.water
steam fraction, min, max = 0.9900057039 0.9900057039 0.9900057039
water fraction, min, max = 0.009994296099 0.009994296099 0.009994296099
Phase-sum volume fraction, min, max = 1 1 1
MULES: Solving for alpha.steam
MULES: Solving for alpha.water
steam fraction, min, max = 0.9900114045 0.9900114045 0.9900114045
water fraction, min, max = 0.009988595451 0.009988595451 0.009988595451
Phase-sum volume fraction, min, max = 1 1 1
MULES: Solving for alpha.steam
MULES: Solving for alpha.water
steam fraction, min, max = 0.9900171019 0.9900171019 0.9900171019
water fraction, min, max = 0.009982898055 0.009982898055 0.009982898055
Phase-sum volume fraction, min, max = 1 1 1
Constructing momentum equations
thermalPhaseChange:Tsat.steam_water: min = 372.76, mean = 372.76, max = 372.76
thermalPhaseChange:Tf.steam_water: min = 372.76, mean = 372.76, max = 372.76
thermalPhaseChange:dmdtf.steam_water: min = 3.510726018, mean = 3.510726018, max = 3.510726018, integral = 3.510726018
diagonal:  Solving for e.steam, Initial residual = 0, Final residual = 0, No Iterations 0
diagonal:  Solving for h.water, Initial residual = 0, Final residual = 0, No Iterations 0
steam min/max T 382.7088646 - 382.7088646
water min/max T 379.0971651 - 379.0971651
diagonal:  Solving for p_rgh, Initial residual = 0, Final residual = 0, No Iterations 0
Time = 0.005s

ExecutionTime = 0.725434 s  ClockTime = 1 s

Courant Number mean: 0 max: 0
PIMPLE: Iteration 1
MULES: Solving for alpha.steam
MULES: Solving for alpha.water
steam fraction, min, max = 0.9900227961 0.9900227961 0.9900227961
water fraction, min, max = 0.009977203924 0.009977203924 0.009977203924
Phase-sum volume fraction, min, max = 1 1 1
MULES: Solving for alpha.steam
MULES: Solving for alpha.water
steam fraction, min, max = 0.990028487 0.990028487 0.990028487
water fraction, min, max = 0.009971513041 0.009971513041 0.009971513041
Phase-sum volume fraction, min, max = 1 1 1
MULES: Solving for alpha.steam
MULES: Solving for alpha.water
steam fraction, min, max = 0.9900341746 0.9900341746 0.9900341746
water fraction, min, max = 0.009965825404 0.009965825404 0.009965825404
Phase-sum volume fraction, min, max = 1 1 1
Constructing momentum equations
thermalPhaseChange:Tsat.steam_water: min = 372.76, mean = 372.76, max = 372.76
thermalPhaseChange:Tf.steam_water: min = 372.76, mean = 372.76, max = 372.76
thermalPhaseChange:dmdtf.steam_water: min = 3.504721943, mean = 3.504721943, max = 3.504721943, integral = 3.504721943
diagonal:  Solving for e.steam, Initial residual = 0, Final residual = 0, No Iterations 0
diagonal:  Solving for h.water, Initial residual = 0, Final residual = 0, No Iterations 0
steam min/max T 382.0758985 - 382.0758985
water min/max T 378.3088694 - 378.3088694
diagonal:  Solving for p_rgh, Initial residual = 0, Final residual = 0, No Iterations 0
PIMPLE: Iteration 2
MULES: Solving for alpha.steam
MULES: Solving for alpha.water
steam fraction, min, max = 0.9900227961 0.9900227961 0.9900227961
water fraction, min, max = 0.009977203924 0.009977203924 0.009977203924
Phase-sum volume fraction, min, max = 1 1 1
MULES: Solving for alpha.steam
MULES: Solving for alpha.water
steam fraction, min, max = 0.990028487 0.990028487 0.990028487
water fraction, min, max = 0.009971513041 0.009971513041 0.009971513041
Phase-sum volume fraction, min, max = 1 1 1
MULES: Solving for alpha.steam
MULES: Solving for alpha.water
steam fraction, min, max = 0.9900341746 0.9900341746 0.9900341746
water fraction, min, max = 0.009965825404 0.009965825404 0.009965825404
Phase-sum volume fraction, min, max = 1 1 1
Constructing momentum equations
thermalPhaseChange:Tsat.steam_water: min = 372.76, mean = 372.76, max = 372.76
thermalPhaseChange:Tf.steam_water: min = 372.76, mean = 372.76, max = 372.76
thermalPhaseChange:dmdtf.steam_water: min = 3.070190545, mean = 3.070190545, max = 3.070190545, integral = 3.070190545
diagonal:  Solving for e.steam, Initial residual = 0, Final residual = 0, No Iterations 0
diagonal:  Solving for h.water, Initial residual = 0, Final residual = 0, No Iterations 0
steam min/max T 384.8537338 - 384.8537338
water min/max T 378.3058072 - 378.3058072
diagonal:  Solving for p_rgh, Initial residual = 0, Final residual = 0, No Iterations 0
PIMPLE: Iteration 3
MULES: Solving for alpha.steam
MULES: Solving for alpha.water
steam fraction, min, max = 0.9900220904 0.9900220904 0.9900220904
water fraction, min, max = 0.009977909556 0.009977909556 0.009977909556
Phase-sum volume fraction, min, max = 1 1 1
MULES: Solving for alpha.steam
MULES: Solving for alpha.water
steam fraction, min, max = 0.9900270765 0.9900270765 0.9900270765
water fraction, min, max = 0.009972923549 0.009972923549 0.009972923549
Phase-sum volume fraction, min, max = 1 1 1
MULES: Solving for alpha.steam
MULES: Solving for alpha.water
steam fraction, min, max = 0.99003206 0.99003206 0.99003206
water fraction, min, max = 0.009967940034 0.009967940034 0.009967940034
Phase-sum volume fraction, min, max = 1 1 1
Constructing momentum equations
thermalPhaseChange:Tsat.steam_water: min = 372.76, mean = 372.76, max = 372.76
thermalPhaseChange:Tf.steam_water: min = 372.76, mean = 372.76, max = 372.76
thermalPhaseChange:dmdtf.steam_water: min = 3.075711914, mean = 3.075711914, max = 3.075711914, integral = 3.075711914
diagonal:  Solving for e.steam, Initial residual = 0, Final residual = 0, No Iterations 0
diagonal:  Solving for h.water, Initial residual = 0, Final residual = 0, No Iterations 0
steam min/max T 384.8581288 - 384.8581288
water min/max T 378.3057436 - 378.3057436
diagonal:  Solving for p_rgh, Initial residual = 0, Final residual = 0, No Iterations 0
PIMPLE: Iteration 4
MULES: Solving for alpha.steam
MULES: Solving for alpha.water
steam fraction, min, max = 0.9900220984 0.9900220984 0.9900220984
water fraction, min, max = 0.009977901649 0.009977901649 0.009977901649
Phase-sum volume fraction, min, max = 1 1 1
MULES: Solving for alpha.steam
MULES: Solving for alpha.water
steam fraction, min, max = 0.9900270923 0.9900270923 0.9900270923
water fraction, min, max = 0.009972907743 0.009972907743 0.009972907743
Phase-sum volume fraction, min, max = 1 1 1
MULES: Solving for alpha.steam
MULES: Solving for alpha.water
steam fraction, min, max = 0.9900320837 0.9900320837 0.9900320837
water fraction, min, max = 0.009967916336 0.009967916336 0.009967916336
Phase-sum volume fraction, min, max = 1 1 1
Constructing momentum equations
thermalPhaseChange:Tsat.steam_water: min = 372.76, mean = 372.76, max = 372.76
thermalPhaseChange:Tf.steam_water: min = 372.76, mean = 372.76, max = 372.76
thermalPhaseChange:dmdtf.steam_water: min = 3.075680038, mean = 3.075680038, max = 3.075680038, integral = 3.075680038
diagonal:  Solving for e.steam, Initial residual = 0, Final residual = 0, No Iterations 0
diagonal:  Solving for h.water, Initial residual = 0, Final residual = 0, No Iterations 0
steam min/max T 384.8581029 - 384.8581029
water min/max T 378.3057563 - 378.3057563
diagonal:  Solving for p_rgh, Initial residual = 0, Final residual = 0, No Iterations 0
PIMPLE: Iteration 5
MULES: Solving for alpha.steam
MULES: Solving for alpha.water
steam fraction, min, max = 0.9900220983 0.9900220983 0.9900220983
water fraction, min, max = 0.009977901688 0.009977901688 0.009977901688
Phase-sum volume fraction, min, max = 1 1 1
MULES: Solving for alpha.steam
MULES: Solving for alpha.water
steam fraction, min, max = 0.9900270922 0.9900270922 0.9900270922
water fraction, min, max = 0.009972907822 0.009972907822 0.009972907822
Phase-sum volume fraction, min, max = 1 1 1
MULES: Solving for alpha.steam
MULES: Solving for alpha.water
steam fraction, min, max = 0.9900320835 0.9900320835 0.9900320835
water fraction, min, max = 0.009967916456 0.009967916456 0.009967916456
Phase-sum volume fraction, min, max = 1 1 1
Constructing momentum equations
thermalPhaseChange:Tsat.steam_water: min = 372.76, mean = 372.76, max = 372.76
thermalPhaseChange:Tf.steam_water: min = 372.76, mean = 372.76, max = 372.76
thermalPhaseChange:dmdtf.steam_water: min = 3.07568702, mean = 3.07568702, max = 3.07568702, integral = 3.07568702
diagonal:  Solving for e.steam, Initial residual = 0, Final residual = 0, No Iterations 0
diagonal:  Solving for h.water, Initial residual = 0, Final residual = 0, No Iterations 0
steam min/max T 384.8581083 - 384.8581083
water min/max T 378.3057565 - 378.3057565
diagonal:  Solving for p_rgh, Initial residual = 0, Final residual = 0, No Iterations 0
Time = 0.01s

ExecutionTime = 0.806497 s  ClockTime = 1 s

Courant Number mean: 0 max: 0
PIMPLE: Iteration 1
MULES: Solving for alpha.steam
MULES: Solving for alpha.water
steam fraction, min, max = 0.9900370724 0.9900370724 0.9900370724
water fraction, min, max = 0.009962927576 0.009962927576 0.009962927576
Phase-sum volume fraction, min, max = 1 1 1
MULES: Solving for alpha.steam
MULES: Solving for alpha.water
steam fraction, min, max = 0.9900420588 0.9900420588 0.9900420588
water fraction, min, max = 0.009957941193 0.009957941193 0.009957941193
Phase-sum volume fraction, min, max = 1 1 1
MULES: Solving for alpha.steam
MULES: Solving for alpha.water
steam fraction, min, max = 0.9900470427 0.9900470427 0.9900470427
water fraction, min, max = 0.009952957306 0.009952957306 0.009952957306
Phase-sum volume fraction, min, max = 1 1 1
Constructing momentum equations
thermalPhaseChange:Tsat.steam_water: min = 372.76, mean = 372.76, max = 372.76
thermalPhaseChange:Tf.steam_water: min = 372.76, mean = 372.76, max = 372.76
thermalPhaseChange:dmdtf.steam_water: min = 3.071071372, mean = 3.071071372, max = 3.071071372, integral = 3.071071372
diagonal:  Solving for e.steam, Initial residual = 0, Final residual = 0, No Iterations 0
diagonal:  Solving for h.water, Initial residual = 0, Final residual = 0, No Iterations 0
steam min/max T 384.1599638 - 384.1599638
water min/max T 377.6147636 - 377.6147636
diagonal:  Solving for p_rgh, Initial residual = 0, Final residual = 0, No Iterations 0
PIMPLE: Iteration 2
MULES: Solving for alpha.steam
MULES: Solving for alpha.water
steam fraction, min, max = 0.9900370724 0.9900370724 0.9900370724
water fraction, min, max = 0.009962927576 0.009962927576 0.009962927576
Phase-sum volume fraction, min, max = 1 1 1
MULES: Solving for alpha.steam
MULES: Solving for alpha.water
steam fraction, min, max = 0.9900420588 0.9900420588 0.9900420588
water fraction, min, max = 0.009957941193 0.009957941193 0.009957941193
Phase-sum volume fraction, min, max = 1 1 1
MULES: Solving for alpha.steam
MULES: Solving for alpha.water
steam fraction, min, max = 0.9900470427 0.9900470427 0.9900470427
water fraction, min, max = 0.009952957306 0.009952957306 0.009952957306
Phase-sum volume fraction, min, max = 1 1 1
Constructing momentum equations
thermalPhaseChange:Tsat.steam_water: min = 372.76, mean = 372.76, max = 372.76
thermalPhaseChange:Tf.steam_water: min = 372.76, mean = 372.76, max = 372.76
thermalPhaseChange:dmdtf.steam_water: min = 2.690329358, mean = 2.690329358, max = 2.690329358, integral = 2.690329358
diagonal:  Solving for e.steam, Initial residual = 0, Final residual = 0, No Iterations 0
diagonal:  Solving for h.water, Initial residual = 0, Final residual = 0, No Iterations 0
steam min/max T 386.562695 - 386.562695
water min/max T 377.6123231 - 377.6123231
diagonal:  Solving for p_rgh, Initial residual = 0, Final residual = 0, No Iterations 0
PIMPLE: Iteration 3
MULES: Solving for alpha.steam
MULES: Solving for alpha.water
steam fraction, min, max = 0.9900364542 0.9900364542 0.9900364542
water fraction, min, max = 0.009963545811 0.009963545811 0.009963545811
Phase-sum volume fraction, min, max = 1 1 1
MULES: Solving for alpha.steam
MULES: Solving for alpha.water
steam fraction, min, max = 0.9900408229 0.9900408229 0.9900408229
water fraction, min, max = 0.009959177082 0.009959177082 0.009959177082
Phase-sum volume fraction, min, max = 1 1 1
MULES: Solving for alpha.steam
MULES: Solving for alpha.water
steam fraction, min, max = 0.9900451897 0.9900451897 0.9900451897
water fraction, min, max = 0.009954810269 0.009954810269 0.009954810269
Phase-sum volume fraction, min, max = 1 1 1
Constructing momentum equations
thermalPhaseChange:Tsat.steam_water: min = 372.76, mean = 372.76, max = 372.76
thermalPhaseChange:Tf.steam_water: min = 372.76, mean = 372.76, max = 372.76
thermalPhaseChange:dmdtf.steam_water: min = 2.695151242, mean = 2.695151242, max = 2.695151242, integral = 2.695151242
diagonal:  Solving for e.steam, Initial residual = 0, Final residual = 0, No Iterations 0
diagonal:  Solving for h.water, Initial residual = 0, Final residual = 0, No Iterations 0
steam min/max T 386.5663832 - 386.5663832
water min/max T 377.6122817 - 377.6122817
diagonal:  Solving for p_rgh, Initial residual = 0, Final residual = 0, No Iterations 0
PIMPLE: Iteration 4
MULES: Solving for alpha.steam
MULES: Solving for alpha.water
steam fraction, min, max = 0.9900364612 0.9900364612 0.9900364612
water fraction, min, max = 0.009963538795 0.009963538795 0.009963538795
Phase-sum volume fraction, min, max = 1 1 1
MULES: Solving for alpha.steam
MULES: Solving for alpha.water
steam fraction, min, max = 0.9900408369 0.9900408369 0.9900408369
water fraction, min, max = 0.009959163058 0.009959163058 0.009959163058
Phase-sum volume fraction, min, max = 1 1 1
MULES: Solving for alpha.steam
MULES: Solving for alpha.water
steam fraction, min, max = 0.9900452108 0.9900452108 0.9900452108
water fraction, min, max = 0.009954789241 0.009954789241 0.009954789241
Phase-sum volume fraction, min, max = 1 1 1
Constructing momentum equations
thermalPhaseChange:Tsat.steam_water: min = 372.76, mean = 372.76, max = 372.76
thermalPhaseChange:Tf.steam_water: min = 372.76, mean = 372.76, max = 372.76
thermalPhaseChange:dmdtf.steam_water: min = 2.695131501, mean = 2.695131501, max = 2.695131501, integral = 2.695131501
diagonal:  Solving for e.steam, Initial residual = 0, Final residual = 0, No Iterations 0
diagonal:  Solving for h.water, Initial residual = 0, Final residual = 0, No Iterations 0
steam min/max T 386.5663674 - 386.5663674
water min/max T 377.6122929 - 377.6122929
diagonal:  Solving for p_rgh, Initial residual = 0, Final residual = 0, No Iterations 0
PIMPLE: Iteration 5
MULES: Solving for alpha.steam
MULES: Solving for alpha.water
steam fraction, min, max = 0.9900364612 0.9900364612 0.9900364612
water fraction, min, max = 0.009963538818 0.009963538818 0.009963538818
Phase-sum volume fraction, min, max = 1 1 1
MULES: Solving for alpha.steam
MULES: Solving for alpha.water
steam fraction, min, max = 0.9900408369 0.9900408369 0.9900408369
water fraction, min, max = 0.009959163103 0.009959163103 0.009959163103
Phase-sum volume fraction, min, max = 1 1 1
MULES: Solving for alpha.steam
MULES: Solving for alpha.water
steam fraction, min, max = 0.9900452107 0.9900452107 0.9900452107
water fraction, min, max = 0.00995478931 0.00995478931 0.00995478931
Phase-sum volume fraction, min, max = 1 1 1
Constructing momentum equations
thermalPhaseChange:Tsat.steam_water: min = 372.76, mean = 372.76, max = 372.76
thermalPhaseChange:Tf.steam_water: min = 372.76, mean = 372.76, max = 372.76
thermalPhaseChange:dmdtf.steam_water: min = 2.695137619, mean = 2.695137619, max = 2.695137619, integral = 2.695137619
diagonal:  Solving for e.steam, Initial residual = 0, Final residual = 0, No Iterations 0
diagonal:  Solving for h.water, Initial residual = 0, Final residual = 0, No Iterations 0
steam min/max T 386.5663719 - 386.5663719
water min/max T 377.612293 - 377.612293
diagonal:  Solving for p_rgh, Initial residual = 0, Final residual = 0, No Iterations 0
Time = 0.015s

ExecutionTime = 0.885807 s  ClockTime = 1 s

Courant Number mean: 0 max: 0
PIMPLE: Iteration 1
MULES: Solving for alpha.steam
MULES: Solving for alpha.water
steam fraction, min, max = 0.9900495826 0.9900495826 0.9900495826
water fraction, min, max = 0.009950417427 0.009950417427 0.009950417427
Phase-sum volume fraction, min, max = 1 1 1
MULES: Solving for alpha.steam
MULES: Solving for alpha.water
steam fraction, min, max = 0.9900539525 0.9900539525 0.9900539525
water fraction, min, max = 0.009946047465 0.009946047465 0.009946047465
Phase-sum volume fraction, min, max = 1 1 1
MULES: Solving for alpha.steam
MULES: Solving for alpha.water
steam fraction, min, max = 0.9900583206 0.9900583206 0.9900583206
water fraction, min, max = 0.009941679421 0.009941679421 0.009941679421
Phase-sum volume fraction, min, max = 1 1 1
Constructing momentum equations
thermalPhaseChange:Tsat.steam_water: min = 372.76, mean = 372.76, max = 372.76
thermalPhaseChange:Tf.steam_water: min = 372.76, mean = 372.76, max = 372.76
thermalPhaseChange:dmdtf.steam_water: min = 2.691588386, mean = 2.691588386, max = 2.691588386, integral = 2.691588386
diagonal:  Solving for e.steam, Initial residual = 0, Final residual = 0, No Iterations 0
diagonal:  Solving for h.water, Initial residual = 0, Final residual = 0, No Iterations 0
steam min/max T 385.8378818 - 385.8378818
water min/max T 377.0068268 - 377.0068268
diagonal:  Solving for p_rgh, Initial residual = 0, Final residual = 0, No Iterations 0
PIMPLE: Iteration 2
MULES: Solving for alpha.steam
MULES: Solving for alpha.water
steam fraction, min, max = 0.9900495826 0.9900495826 0.9900495826
water fraction, min, max = 0.009950417427 0.009950417427 0.009950417427
Phase-sum volume fraction, min, max = 1 1 1
MULES: Solving for alpha.steam
MULES: Solving for alpha.water
steam fraction, min, max = 0.9900539525 0.9900539525 0.9900539525
water fraction, min, max = 0.009946047464 0.009946047464 0.009946047464
Phase-sum volume fraction, min, max = 1 1 1
MULES: Solving for alpha.steam
MULES: Solving for alpha.water
steam fraction, min, max = 0.9900583206 0.9900583206 0.9900583206
water fraction, min, max = 0.009941679421 0.009941679421 0.009941679421
Phase-sum volume fraction, min, max = 1 1 1
Constructing momentum equations
thermalPhaseChange:Tsat.steam_water: min = 372.76, mean = 372.76, max = 372.76
thermalPhaseChange:Tf.steam_water: min = 372.76, mean = 372.76, max = 372.76
thermalPhaseChange:dmdtf.steam_water: min = 2.358074775, mean = 2.358074775, max = 2.358074775, integral = 2.358074775
diagonal:  Solving for e.steam, Initial residual = 0, Final residual = 0, No Iterations 0
diagonal:  Solving for h.water, Initial residual = 0, Final residual = 0, No Iterations 0
steam min/max T 387.9192212 - 387.9192212
water min/max T 377.0048765 - 377.0048765
diagonal:  Solving for p_rgh, Initial residual = 0, Final residual = 0, No Iterations 0
PIMPLE: Iteration 3
MULES: Solving for alpha.steam
MULES: Solving for alpha.water
steam fraction, min, max = 0.9900490411 0.9900490411 0.9900490411
water fraction, min, max = 0.009950958937 0.009950958937 0.009950958937
Phase-sum volume fraction, min, max = 1 1 1
MULES: Solving for alpha.steam
MULES: Solving for alpha.water
steam fraction, min, max = 0.99005287 0.99005287 0.99005287
water fraction, min, max = 0.009947130038 0.009947130038 0.009947130038
Phase-sum volume fraction, min, max = 1 1 1
MULES: Solving for alpha.steam
MULES: Solving for alpha.water
steam fraction, min, max = 0.9900566974 0.9900566974 0.9900566974
water fraction, min, max = 0.009943302612 0.009943302612 0.009943302612
Phase-sum volume fraction, min, max = 1 1 1
Constructing momentum equations
thermalPhaseChange:Tsat.steam_water: min = 372.76, mean = 372.76, max = 372.76
thermalPhaseChange:Tf.steam_water: min = 372.76, mean = 372.76, max = 372.76
thermalPhaseChange:dmdtf.steam_water: min = 2.362288226, mean = 2.362288226, max = 2.362288226, integral = 2.362288226
diagonal:  Solving for e.steam, Initial residual = 0, Final residual = 0, No Iterations 0
diagonal:  Solving for h.water, Initial residual = 0, Final residual = 0, No Iterations 0
steam min/max T 387.9223388 - 387.9223388
water min/max T 377.0048511 - 377.0048511
diagonal:  Solving for p_rgh, Initial residual = 0, Final residual = 0, No Iterations 0
PIMPLE: Iteration 4
MULES: Solving for alpha.steam
MULES: Solving for alpha.water
steam fraction, min, max = 0.9900490473 0.9900490473 0.9900490473
water fraction, min, max = 0.009950952721 0.009950952721 0.009950952721
Phase-sum volume fraction, min, max = 1 1 1
MULES: Solving for alpha.steam
MULES: Solving for alpha.water
steam fraction, min, max = 0.9900528824 0.9900528824 0.9900528824
water fraction, min, max = 0.009947117612 0.009947117612 0.009947117612
Phase-sum volume fraction, min, max = 1 1 1
MULES: Solving for alpha.steam
MULES: Solving for alpha.water
steam fraction, min, max = 0.990056716 0.990056716 0.990056716
water fraction, min, max = 0.00994328398 0.00994328398 0.00994328398
Phase-sum volume fraction, min, max = 1 1 1
Constructing momentum equations
thermalPhaseChange:Tsat.steam_water: min = 372.76, mean = 372.76, max = 372.76
thermalPhaseChange:Tf.steam_water: min = 372.76, mean = 372.76, max = 372.76
thermalPhaseChange:dmdtf.steam_water: min = 2.362277187, mean = 2.362277187, max = 2.362277187, integral = 2.362277187
diagonal:  Solving for e.steam, Initial residual = 0, Final residual = 0, No Iterations 0
diagonal:  Solving for h.water, Initial residual = 0, Final residual = 0, No Iterations 0
steam min/max T 387.9223298 - 387.9223298
water min/max T 377.0048609 - 377.0048609
diagonal:  Solving for p_rgh, Initial residual = 0, Final residual = 0, No Iterations 0
PIMPLE: Iteration 5
MULES: Solving for alpha.steam
MULES: Solving for alpha.water
steam fraction, min, max = 0.9900490473 0.9900490473 0.9900490473
water fraction, min, max = 0.009950952732 0.009950952732 0.009950952732
Phase-sum volume fraction, min, max = 1 1 1
MULES: Solving for alpha.steam
MULES: Solving for alpha.water
steam fraction, min, max = 0.9900528824 0.9900528824 0.9900528824
water fraction, min, max = 0.009947117633 0.009947117633 0.009947117633
Phase-sum volume fraction, min, max = 1 1 1
MULES: Solving for alpha.steam
MULES: Solving for alpha.water
steam fraction, min, max = 0.990056716 0.990056716 0.990056716
water fraction, min, max = 0.009943284012 0.009943284012 0.009943284012
Phase-sum volume fraction, min, max = 1 1 1
Constructing momentum equations
thermalPhaseChange:Tsat.steam_water: min = 372.76, mean = 372.76, max = 372.76
thermalPhaseChange:Tf.steam_water: min = 372.76, mean = 372.76, max = 372.76
thermalPhaseChange:dmdtf.steam_water: min = 2.362282542, mean = 2.362282542, max = 2.362282542, integral = 2.362282542
diagonal:  Solving for e.steam, Initial residual = 0, Final residual = 0, No Iterations 0
diagonal:  Solving for h.water, Initial residual = 0, Final residual = 0, No Iterations 0
steam min/max T 387.9223336 - 387.9223336
water min/max T 377.004861 - 377.004861
diagonal:  Solving for p_rgh, Initial residual = 0, Final residual = 0, No Iterations 0
Time = 0.02s

ExecutionTime = 0.965666 s  ClockTime = 1 s

Courant Number mean: 0 max: 0
PIMPLE: Iteration 1
MULES: Solving for alpha.steam
MULES: Solving for alpha.water
steam fraction, min, max = 0.9900605481 0.9900605481 0.9900605481
water fraction, min, max = 0.00993945186 0.00993945186 0.00993945186
Phase-sum volume fraction, min, max = 1 1 1
MULES: Solving for alpha.steam
MULES: Solving for alpha.water
steam fraction, min, max = 0.9900643788 0.9900643788 0.9900643788
water fraction, min, max = 0.009935621185 0.009935621185 0.009935621185
Phase-sum volume fraction, min, max = 1 1 1
MULES: Solving for alpha.steam
MULES: Solving for alpha.water
steam fraction, min, max = 0.990068208 0.990068208 0.990068208
water fraction, min, max = 0.009931791986 0.009931791986 0.009931791986
Phase-sum volume fraction, min, max = 1 1 1
Constructing momentum equations
thermalPhaseChange:Tsat.steam_water: min = 372.76, mean = 372.76, max = 372.76
thermalPhaseChange:Tf.steam_water: min = 372.76, mean = 372.76, max = 372.76
thermalPhaseChange:dmdtf.steam_water: min = 2.359552411, mean = 2.359552411, max = 2.359552411, integral = 2.359552411
diagonal:  Solving for e.steam, Initial residual = 0, Final residual = 0, No Iterations 0
diagonal:  Solving for h.water, Initial residual = 0, Final residual = 0, No Iterations 0
steam min/max T 387.1854571 - 387.1854571
water min/max T 376.4745156 - 376.4745156
diagonal:  Solving for p_rgh, Initial residual = 0, Final residual = 0, No Iterations 0
PIMPLE: Iteration 2
MULES: Solving for alpha.steam
MULES: Solving for alpha.water
steam fraction, min, max = 0.9900605481 0.9900605481 0.9900605481
water fraction, min, max = 0.00993945186 0.00993945186 0.00993945186
Phase-sum volume fraction, min, max = 1 1 1
MULES: Solving for alpha.steam
MULES: Solving for alpha.water
steam fraction, min, max = 0.9900643788 0.9900643788 0.9900643788
water fraction, min, max = 0.009935621185 0.009935621185 0.009935621185
Phase-sum volume fraction, min, max = 1 1 1
MULES: Solving for alpha.steam
MULES: Solving for alpha.water
steam fraction, min, max = 0.990068208 0.990068208 0.990068208
water fraction, min, max = 0.009931791986 0.009931791986 0.009931791986
Phase-sum volume fraction, min, max = 1 1 1
Constructing momentum equations
thermalPhaseChange:Tsat.steam_water: min = 372.76, mean = 372.76, max = 372.76
thermalPhaseChange:Tf.steam_water: min = 372.76, mean = 372.76, max = 372.76
thermalPhaseChange:dmdtf.steam_water: min = 2.067476027, mean = 2.067476027, max = 2.067476027, integral = 2.067476027
diagonal:  Solving for e.steam, Initial residual = 0, Final residual = 0, No Iterations 0
diagonal:  Solving for h.water, Initial residual = 0, Final residual = 0, No Iterations 0
steam min/max T 388.9909473 - 388.9909473
water min/max T 376.4729526 - 376.4729526
diagonal:  Solving for p_rgh, Initial residual = 0, Final residual = 0, No Iterations 0
PIMPLE: Iteration 3
MULES: Solving for alpha.steam
MULES: Solving for alpha.water
steam fraction, min, max = 0.9900600739 0.9900600739 0.9900600739
water fraction, min, max = 0.009939926061 0.009939926061 0.009939926061
Phase-sum volume fraction, min, max = 1 1 1
MULES: Solving for alpha.steam
MULES: Solving for alpha.water
steam fraction, min, max = 0.9900634308 0.9900634308 0.9900634308
water fraction, min, max = 0.009936569245 0.009936569245 0.009936569245
Phase-sum volume fraction, min, max = 1 1 1
MULES: Solving for alpha.steam
MULES: Solving for alpha.water
steam fraction, min, max = 0.9900667864 0.9900667864 0.9900667864
water fraction, min, max = 0.009933213562 0.009933213562 0.009933213562
Phase-sum volume fraction, min, max = 1 1 1
Constructing momentum equations
thermalPhaseChange:Tsat.steam_water: min = 372.76, mean = 372.76, max = 372.76
thermalPhaseChange:Tf.steam_water: min = 372.76, mean = 372.76, max = 372.76
thermalPhaseChange:dmdtf.steam_water: min = 2.071160083, mean = 2.071160083, max = 2.071160083, integral = 2.071160083
diagonal:  Solving for e.steam, Initial residual = 0, Final residual = 0, No Iterations 0
diagonal:  Solving for h.water, Initial residual = 0, Final residual = 0, No Iterations 0
steam min/max T 388.993599 - 388.993599
water min/max T 376.4729385 - 376.4729385
diagonal:  Solving for p_rgh, Initial residual = 0, Final residual = 0, No Iterations 0
PIMPLE: Iteration 4
MULES: Solving for alpha.steam
MULES: Solving for alpha.water
steam fraction, min, max = 0.9900600794 0.9900600794 0.9900600794
water fraction, min, max = 0.009939920561 0.009939920561 0.009939920561
Phase-sum volume fraction, min, max = 1 1 1
MULES: Solving for alpha.steam
MULES: Solving for alpha.water
steam fraction, min, max = 0.9900634418 0.9900634418 0.9900634418
water fraction, min, max = 0.009936558248 0.009936558248 0.009936558248
Phase-sum volume fraction, min, max = 1 1 1
MULES: Solving for alpha.steam
MULES: Solving for alpha.water
steam fraction, min, max = 0.9900668029 0.9900668029 0.9900668029
water fraction, min, max = 0.009933197072 0.009933197072 0.009933197072
Phase-sum volume fraction, min, max = 1 1 1
Constructing momentum equations
thermalPhaseChange:Tsat.steam_water: min = 372.76, mean = 372.76, max = 372.76
thermalPhaseChange:Tf.steam_water: min = 372.76, mean = 372.76, max = 372.76
thermalPhaseChange:dmdtf.steam_water: min = 2.071155171, mean = 2.071155171, max = 2.071155171, integral = 2.071155171
diagonal:  Solving for e.steam, Initial residual = 0, Final residual = 0, No Iterations 0
diagonal:  Solving for h.water, Initial residual = 0, Final residual = 0, No Iterations 0
steam min/max T 388.9935946 - 388.9935946
water min/max T 376.472947 - 376.472947
diagonal:  Solving for p_rgh, Initial residual = 0, Final residual = 0, No Iterations 0
PIMPLE: Iteration 5
MULES: Solving for alpha.steam
MULES: Solving for alpha.water
steam fraction, min, max = 0.9900600794 0.9900600794 0.9900600794
water fraction, min, max = 0.009939920564 0.009939920564 0.009939920564
Phase-sum volume fraction, min, max = 1 1 1
MULES: Solving for alpha.steam
MULES: Solving for alpha.water
steam fraction, min, max = 0.9900634417 0.9900634417 0.9900634417
water fraction, min, max = 0.009936558253 0.009936558253 0.009936558253
Phase-sum volume fraction, min, max = 1 1 1
MULES: Solving for alpha.steam
MULES: Solving for alpha.water
steam fraction, min, max = 0.9900668029 0.9900668029 0.9900668029
water fraction, min, max = 0.009933197079 0.009933197079 0.009933197079
Phase-sum volume fraction, min, max = 1 1 1
Constructing momentum equations
thermalPhaseChange:Tsat.steam_water: min = 372.76, mean = 372.76, max = 372.76
thermalPhaseChange:Tf.steam_water: min = 372.76, mean = 372.76, max = 372.76
thermalPhaseChange:dmdtf.steam_water: min = 2.071159857, mean = 2.071159857, max = 2.071159857, integral = 2.071159857
diagonal:  Solving for e.steam, Initial residual = 0, Final residual = 0, No Iterations 0
diagonal:  Solving for h.water, Initial residual = 0, Final residual = 0, No Iterations 0
steam min/max T 388.9935979 - 388.9935979
water min/max T 376.4729472 - 376.4729472
diagonal:  Solving for p_rgh, Initial residual = 0, Final residual = 0, No Iterations 0
Time = 0.025s

ExecutionTime = 1.059511 s  ClockTime = 1 s

Courant Number mean: 0 max: 0
PIMPLE: Iteration 1
MULES: Solving for alpha.steam
MULES: Solving for alpha.water
steam fraction, min, max = 0.990070163 0.990070163 0.990070163
water fraction, min, max = 0.009929837035 0.009929837035 0.009929837035
Phase-sum volume fraction, min, max = 1 1 1
MULES: Solving for alpha.steam
MULES: Solving for alpha.water
steam fraction, min, max = 0.9900735219 0.9900735219 0.9900735219
water fraction, min, max = 0.009926478127 0.009926478127 0.009926478127
Phase-sum volume fraction, min, max = 1 1 1
MULES: Solving for alpha.steam
MULES: Solving for alpha.water
steam fraction, min, max = 0.9900768796 0.9900768796 0.9900768796
water fraction, min, max = 0.009923120356 0.009923120356 0.009923120356
Phase-sum volume fraction, min, max = 1 1 1
Constructing momentum equations
thermalPhaseChange:Tsat.steam_water: min = 372.76, mean = 372.76, max = 372.76
thermalPhaseChange:Tf.steam_water: min = 372.76, mean = 372.76, max = 372.76
thermalPhaseChange:dmdtf.steam_water: min = 2.069058852, mean = 2.069058852, max = 2.069058852, integral = 2.069058852
diagonal:  Solving for e.steam, Initial residual = 0, Final residual = 0, No Iterations 0
diagonal:  Solving for h.water, Initial residual = 0, Final residual = 0, No Iterations 0
steam min/max T 388.2620056 - 388.2620056
water min/max T 376.0085405 - 376.0085405
diagonal:  Solving for p_rgh, Initial residual = 0, Final residual = 0, No Iterations 0
PIMPLE: Iteration 2
MULES: Solving for alpha.steam
MULES: Solving for alpha.water
steam fraction, min, max = 0.990070163 0.990070163 0.990070163
water fraction, min, max = 0.009929837035 0.009929837035 0.009929837035
Phase-sum volume fraction, min, max = 1 1 1
MULES: Solving for alpha.steam
MULES: Solving for alpha.water
steam fraction, min, max = 0.9900735219 0.9900735219 0.9900735219
water fraction, min, max = 0.009926478127 0.009926478127 0.009926478127
Phase-sum volume fraction, min, max = 1 1 1
MULES: Solving for alpha.steam
MULES: Solving for alpha.water
steam fraction, min, max = 0.9900768796 0.9900768796 0.9900768796
water fraction, min, max = 0.009923120355 0.009923120355 0.009923120355
Phase-sum volume fraction, min, max = 1 1 1
Constructing momentum equations
thermalPhaseChange:Tsat.steam_water: min = 372.76, mean = 372.76, max = 372.76
thermalPhaseChange:Tf.steam_water: min = 372.76, mean = 372.76, max = 372.76
thermalPhaseChange:dmdtf.steam_water: min = 1.813316988, mean = 1.813316988, max = 1.813316988, integral = 1.813316988
diagonal:  Solving for e.steam, Initial residual = 0, Final residual = 0, No Iterations 0
diagonal:  Solving for h.water, Initial residual = 0, Final residual = 0, No Iterations 0
steam min/max T 389.830326 - 389.830326
water min/max T 376.007284 - 376.007284
diagonal:  Solving for p_rgh, Initial residual = 0, Final residual = 0, No Iterations 0
PIMPLE: Iteration 3
MULES: Solving for alpha.steam
MULES: Solving for alpha.water
steam fraction, min, max = 0.9900697478 0.9900697478 0.9900697478
water fraction, min, max = 0.009930252223 0.009930252223 0.009930252223
Phase-sum volume fraction, min, max = 1 1 1
MULES: Solving for alpha.steam
MULES: Solving for alpha.water
steam fraction, min, max = 0.9900726918 0.9900726918 0.9900726918
water fraction, min, max = 0.00992730824 0.00992730824 0.00992730824
Phase-sum volume fraction, min, max = 1 1 1
MULES: Solving for alpha.steam
MULES: Solving for alpha.water
steam fraction, min, max = 0.9900756349 0.9900756349 0.9900756349
water fraction, min, max = 0.00992436513 0.00992436513 0.00992436513
Phase-sum volume fraction, min, max = 1 1 1
Constructing momentum equations
thermalPhaseChange:Tsat.steam_water: min = 372.76, mean = 372.76, max = 372.76
thermalPhaseChange:Tf.steam_water: min = 372.76, mean = 372.76, max = 372.76
thermalPhaseChange:dmdtf.steam_water: min = 1.816540229, mean = 1.816540229, max = 1.816540229, integral = 1.816540229
diagonal:  Solving for e.steam, Initial residual = 0, Final residual = 0, No Iterations 0
diagonal:  Solving for h.water, Initial residual = 0, Final residual = 0, No Iterations 0
steam min/max T 389.8325934 - 389.8325934
water min/max T 376.0072778 - 376.0072778
diagonal:  Solving for p_rgh, Initial residual = 0, Final residual = 0, No Iterations 0
PIMPLE: Iteration 4
MULES: Solving for alpha.steam
MULES: Solving for alpha.water
steam fraction, min, max = 0.9900697526 0.9900697526 0.9900697526
water fraction, min, max = 0.00993024736 0.00993024736 0.00993024736
Phase-sum volume fraction, min, max = 1 1 1
MULES: Solving for alpha.steam
MULES: Solving for alpha.water
steam fraction, min, max = 0.9900727015 0.9900727015 0.9900727015
water fraction, min, max = 0.009927298517 0.009927298517 0.009927298517
Phase-sum volume fraction, min, max = 1 1 1
MULES: Solving for alpha.steam
MULES: Solving for alpha.water
steam fraction, min, max = 0.9900756495 0.9900756495 0.9900756495
water fraction, min, max = 0.009924350549 0.009924350549 0.009924350549
Phase-sum volume fraction, min, max = 1 1 1
Constructing momentum equations
thermalPhaseChange:Tsat.steam_water: min = 372.76, mean = 372.76, max = 372.76
thermalPhaseChange:Tf.steam_water: min = 372.76, mean = 372.76, max = 372.76
thermalPhaseChange:dmdtf.steam_water: min = 1.816539529, mean = 1.816539529, max = 1.816539529, integral = 1.816539529
diagonal:  Solving for e.steam, Initial residual = 0, Final residual = 0, No Iterations 0
diagonal:  Solving for h.water, Initial residual = 0, Final residual = 0, No Iterations 0
steam min/max T 389.8325921 - 389.8325921
water min/max T 376.0072853 - 376.0072853
diagonal:  Solving for p_rgh, Initial residual = 0, Final residual = 0, No Iterations 0
PIMPLE: Iteration 5
MULES: Solving for alpha.steam
MULES: Solving for alpha.water
steam fraction, min, max = 0.9900697526 0.9900697526 0.9900697526
water fraction, min, max = 0.009930247357 0.009930247357 0.009930247357
Phase-sum volume fraction, min, max = 1 1 1
MULES: Solving for alpha.steam
MULES: Solving for alpha.water
steam fraction, min, max = 0.9900727015 0.9900727015 0.9900727015
water fraction, min, max = 0.00992729851 0.00992729851 0.00992729851
Phase-sum volume fraction, min, max = 1 1 1
MULES: Solving for alpha.steam
MULES: Solving for alpha.water
steam fraction, min, max = 0.9900756495 0.9900756495 0.9900756495
water fraction, min, max = 0.00992435054 0.00992435054 0.00992435054
Phase-sum volume fraction, min, max = 1 1 1
Constructing momentum equations
thermalPhaseChange:Tsat.steam_water: min = 372.76, mean = 372.76, max = 372.76
thermalPhaseChange:Tf.steam_water: min = 372.76, mean = 372.76, max = 372.76
thermalPhaseChange:dmdtf.steam_water: min = 1.816543628, mean = 1.816543628, max = 1.816543628, integral = 1.816543628
diagonal:  Solving for e.steam, Initial residual = 0, Final residual = 0, No Iterations 0
diagonal:  Solving for h.water, Initial residual = 0, Final residual = 0, No Iterations 0
steam min/max T 389.8325949 - 389.8325949
water min/max T 376.0072855 - 376.0072855
diagonal:  Solving for p_rgh, Initial residual = 0, Final residual = 0, No Iterations 0
Time = 0.03s

ExecutionTime = 1.152653 s  ClockTime = 1 s

Courant Number mean: 0 max: 0
PIMPLE: Iteration 1
MULES: Solving for alpha.steam
MULES: Solving for alpha.water
steam fraction, min, max = 0.9900785966 0.9900785966 0.9900785966
water fraction, min, max = 0.009921403438 0.009921403438 0.009921403438
Phase-sum volume fraction, min, max = 1 1 1
MULES: Solving for alpha.steam
MULES: Solving for alpha.water
steam fraction, min, max = 0.9900815428 0.9900815428 0.9900815428
water fraction, min, max = 0.009918457211 0.009918457211 0.009918457211
Phase-sum volume fraction, min, max = 1 1 1
MULES: Solving for alpha.steam
MULES: Solving for alpha.water
steam fraction, min, max = 0.9900844881 0.9900844881 0.9900844881
water fraction, min, max = 0.009915511859 0.009915511859 0.009915511859
Phase-sum volume fraction, min, max = 1 1 1
Constructing momentum equations
thermalPhaseChange:Tsat.steam_water: min = 372.76, mean = 372.76, max = 372.76
thermalPhaseChange:Tf.steam_water: min = 372.76, mean = 372.76, max = 372.76
thermalPhaseChange:dmdtf.steam_water: min = 1.814925875, mean = 1.814925875, max = 1.814925875, integral = 1.814925875
diagonal:  Solving for e.steam, Initial residual = 0, Final residual = 0, No Iterations 0
diagonal:  Solving for h.water, Initial residual = 0, Final residual = 0, No Iterations 0
steam min/max T 389.1145796 - 389.1145796
water min/max T 375.6007253 - 375.6007253
diagonal:  Solving for p_rgh, Initial residual = 0, Final residual = 0, No Iterations 0
PIMPLE: Iteration 2
MULES: Solving for alpha.steam
MULES: Solving for alpha.water
steam fraction, min, max = 0.9900785966 0.9900785966 0.9900785966
water fraction, min, max = 0.009921403438 0.009921403438 0.009921403438
Phase-sum volume fraction, min, max = 1 1 1
MULES: Solving for alpha.steam
MULES: Solving for alpha.water
steam fraction, min, max = 0.9900815428 0.9900815428 0.9900815428
water fraction, min, max = 0.009918457211 0.009918457211 0.009918457211
Phase-sum volume fraction, min, max = 1 1 1
MULES: Solving for alpha.steam
MULES: Solving for alpha.water
steam fraction, min, max = 0.9900844881 0.9900844881 0.9900844881
water fraction, min, max = 0.009915511859 0.009915511859 0.009915511859
Phase-sum volume fraction, min, max = 1 1 1
Constructing momentum equations
thermalPhaseChange:Tsat.steam_water: min = 372.76, mean = 372.76, max = 372.76
thermalPhaseChange:Tf.steam_water: min = 372.76, mean = 372.76, max = 372.76
thermalPhaseChange:dmdtf.steam_water: min = 1.591028599, mean = 1.591028599, max = 1.591028599, integral = 1.591028599
diagonal:  Solving for e.steam, Initial residual = 0, Final residual = 0, No Iterations 0
diagonal:  Solving for h.water, Initial residual = 0, Final residual = 0, No Iterations 0
steam min/max T 390.4786489 - 390.4786489
water min/max T 375.599712 - 375.599712
diagonal:  Solving for p_rgh, Initial residual = 0, Final residual = 0, No Iterations 0
PIMPLE: Iteration 3
MULES: Solving for alpha.steam
MULES: Solving for alpha.water
steam fraction, min, max = 0.9900782331 0.9900782331 0.9900782331
water fraction, min, max = 0.009921766911 0.009921766911 0.009921766911
Phase-sum volume fraction, min, max = 1 1 1
MULES: Solving for alpha.steam
MULES: Solving for alpha.water
steam fraction, min, max = 0.990080816 0.990080816 0.990080816
water fraction, min, max = 0.009919183954 0.009919183954 0.009919183954
Phase-sum volume fraction, min, max = 1 1 1
MULES: Solving for alpha.steam
MULES: Solving for alpha.water
steam fraction, min, max = 0.9900833983 0.9900833983 0.9900833983
water fraction, min, max = 0.00991660167 0.00991660167 0.00991660167
Phase-sum volume fraction, min, max = 1 1 1
Constructing momentum equations
thermalPhaseChange:Tsat.steam_water: min = 372.76, mean = 372.76, max = 372.76
thermalPhaseChange:Tf.steam_water: min = 372.76, mean = 372.76, max = 372.76
thermalPhaseChange:dmdtf.steam_water: min = 1.593850545, mean = 1.593850545, max = 1.593850545, integral = 1.593850545
diagonal:  Solving for e.steam, Initial residual = 0, Final residual = 0, No Iterations 0
diagonal:  Solving for h.water, Initial residual = 0, Final residual = 0, No Iterations 0
steam min/max T 390.4805967 - 390.4805967
water min/max T 375.5997113 - 375.5997113
diagonal:  Solving for p_rgh, Initial residual = 0, Final residual = 0, No Iterations 0
PIMPLE: Iteration 4
MULES: Solving for alpha.steam
MULES: Solving for alpha.water
steam fraction, min, max = 0.9900782374 0.9900782374 0.9900782374
water fraction, min, max = 0.009921762614 0.009921762614 0.009921762614
Phase-sum volume fraction, min, max = 1 1 1
MULES: Solving for alpha.steam
MULES: Solving for alpha.water
steam fraction, min, max = 0.9900808246 0.9900808246 0.9900808246
water fraction, min, max = 0.009919175362 0.009919175362 0.009919175362
Phase-sum volume fraction, min, max = 1 1 1
MULES: Solving for alpha.steam
MULES: Solving for alpha.water
steam fraction, min, max = 0.9900834112 0.9900834112 0.9900834112
water fraction, min, max = 0.009916588786 0.009916588786 0.009916588786
Phase-sum volume fraction, min, max = 1 1 1
Constructing momentum equations
thermalPhaseChange:Tsat.steam_water: min = 372.76, mean = 372.76, max = 372.76
thermalPhaseChange:Tf.steam_water: min = 372.76, mean = 372.76, max = 372.76
thermalPhaseChange:dmdtf.steam_water: min = 1.593852644, mean = 1.593852644, max = 1.593852644, integral = 1.593852644
diagonal:  Solving for e.steam, Initial residual = 0, Final residual = 0, No Iterations 0
diagonal:  Solving for h.water, Initial residual = 0, Final residual = 0, No Iterations 0
steam min/max T 390.4805974 - 390.4805974
water min/max T 375.5997178 - 375.5997178
diagonal:  Solving for p_rgh, Initial residual = 0, Final residual = 0, No Iterations 0
PIMPLE: Iteration 5
MULES: Solving for alpha.steam
MULES: Solving for alpha.water
steam fraction, min, max = 0.9900782374 0.9900782374 0.9900782374
water fraction, min, max = 0.009921762607 0.009921762607 0.009921762607
Phase-sum volume fraction, min, max = 1 1 1
MULES: Solving for alpha.steam
MULES: Solving for alpha.water
steam fraction, min, max = 0.9900808247 0.9900808247 0.9900808247
water fraction, min, max = 0.009919175349 0.009919175349 0.009919175349
Phase-sum volume fraction, min, max = 1 1 1
MULES: Solving for alpha.steam
MULES: Solving for alpha.water
steam fraction, min, max = 0.9900834112 0.9900834112 0.9900834112
water fraction, min, max = 0.009916588766 0.009916588766 0.009916588766
Phase-sum volume fraction, min, max = 1 1 1
Constructing momentum equations
thermalPhaseChange:Tsat.steam_water: min = 372.76, mean = 372.76, max = 372.76
thermalPhaseChange:Tf.steam_water: min = 372.76, mean = 372.76, max = 372.76
thermalPhaseChange:dmdtf.steam_water: min = 1.593856232, mean = 1.593856232, max = 1.593856232, integral = 1.593856232
diagonal:  Solving for e.steam, Initial residual = 0, Final residual = 0, No Iterations 0
diagonal:  Solving for h.water, Initial residual = 0, Final residual = 0, No Iterations 0
steam min/max T 390.4805997 - 390.4805997
water min/max T 375.5997179 - 375.5997179
diagonal:  Solving for p_rgh, Initial residual = 0, Final residual = 0, No Iterations 0
Time = 0.035s

ExecutionTime = 1.222921 s  ClockTime = 1 s

Courant Number mean: 0 max: 0
PIMPLE: Iteration 1
MULES: Solving for alpha.steam
MULES: Solving for alpha.water
steam fraction, min, max = 0.9900859971 0.9900859971 0.9900859971
water fraction, min, max = 0.009914002851 0.009914002851 0.009914002851
Phase-sum volume fraction, min, max = 1 1 1
MULES: Solving for alpha.steam
MULES: Solving for alpha.water
steam fraction, min, max = 0.9900885824 0.9900885824 0.9900885824
water fraction, min, max = 0.009911417611 0.009911417611 0.009911417611
Phase-sum volume fraction, min, max = 1 1 1
MULES: Solving for alpha.steam
MULES: Solving for alpha.water
steam fraction, min, max = 0.990091167 0.990091167 0.990091167
water fraction, min, max = 0.009908833044 0.009908833044 0.009908833044
Phase-sum volume fraction, min, max = 1 1 1
Constructing momentum equations
thermalPhaseChange:Tsat.steam_water: min = 372.76, mean = 372.76, max = 372.76
thermalPhaseChange:Tf.steam_water: min = 372.76, mean = 372.76, max = 372.76
thermalPhaseChange:dmdtf.steam_water: min = 1.592609745, mean = 1.592609745, max = 1.592609745, integral = 1.592609745
diagonal:  Solving for e.steam, Initial residual = 0, Final residual = 0, No Iterations 0
diagonal:  Solving for h.water, Initial residual = 0, Final residual = 0, No Iterations 0
steam min/max T 389.7809533 - 389.7809533
water min/max T 375.2438802 - 375.2438802
diagonal:  Solving for p_rgh, Initial residual = 0, Final residual = 0, No Iterations 0
PIMPLE: Iteration 2
MULES: Solving for alpha.steam
MULES: Solving for alpha.water
steam fraction, min, max = 0.9900859971 0.9900859971 0.9900859971
water fraction, min, max = 0.009914002851 0.009914002851 0.009914002851
Phase-sum volume fraction, min, max = 1 1 1
MULES: Solving for alpha.steam
MULES: Solving for alpha.water
steam fraction, min, max = 0.9900885824 0.9900885824 0.9900885824
water fraction, min, max = 0.00991141761 0.00991141761 0.00991141761
Phase-sum volume fraction, min, max = 1 1 1
MULES: Solving for alpha.steam
MULES: Solving for alpha.water
steam fraction, min, max = 0.990091167 0.990091167 0.990091167
water fraction, min, max = 0.009908833044 0.009908833044 0.009908833044
Phase-sum volume fraction, min, max = 1 1 1
Constructing momentum equations
thermalPhaseChange:Tsat.steam_water: min = 372.76, mean = 372.76, max = 372.76
thermalPhaseChange:Tf.steam_water: min = 372.76, mean = 372.76, max = 372.76
thermalPhaseChange:dmdtf.steam_water: min = 1.396610634, mean = 1.396610634, max = 1.396610634, integral = 1.396610634
diagonal:  Solving for e.steam, Initial residual = 0, Final residual = 0, No Iterations 0
diagonal:  Solving for h.water, Initial residual = 0, Final residual = 0, No Iterations 0
steam min/max T 390.96885 - 390.96885
water min/max T 375.2430605 - 375.2430605
diagonal:  Solving for p_rgh, Initial residual = 0, Final residual = 0, No Iterations 0
PIMPLE: Iteration 3
MULES: Solving for alpha.steam
MULES: Solving for alpha.water
steam fraction, min, max = 0.990085679 0.990085679 0.990085679
water fraction, min, max = 0.009914321021 0.009914321021 0.009914321021
Phase-sum volume fraction, min, max = 1 1 1
MULES: Solving for alpha.steam
MULES: Solving for alpha.water
steam fraction, min, max = 0.9900879462 0.9900879462 0.9900879462
water fraction, min, max = 0.009912053795 0.009912053795 0.009912053795
Phase-sum volume fraction, min, max = 1 1 1
MULES: Solving for alpha.steam
MULES: Solving for alpha.water
steam fraction, min, max = 0.9900902129 0.9900902129 0.9900902129
water fraction, min, max = 0.009909787088 0.009909787088 0.009909787088
Phase-sum volume fraction, min, max = 1 1 1
Constructing momentum equations
thermalPhaseChange:Tsat.steam_water: min = 372.76, mean = 372.76, max = 372.76
thermalPhaseChange:Tf.steam_water: min = 372.76, mean = 372.76, max = 372.76
thermalPhaseChange:dmdtf.steam_water: min = 1.399082971, mean = 1.399082971, max = 1.399082971, integral = 1.399082971
diagonal:  Solving for e.steam, Initial residual = 0, Final residual = 0, No Iterations 0
diagonal:  Solving for h.water, Initial residual = 0, Final residual = 0, No Iterations 0
steam min/max T 390.97053 - 390.97053
water min/max T 375.2430633 - 375.2430633
diagonal:  Solving for p_rgh, Initial residual = 0, Final residual = 0, No Iterations 0
PIMPLE: Iteration 4
MULES: Solving for alpha.steam
MULES: Solving for alpha.water
steam fraction, min, max = 0.9900856828 0.9900856828 0.9900856828
water fraction, min, max = 0.009914317226 0.009914317226 0.009914317226
Phase-sum volume fraction, min, max = 1 1 1
MULES: Solving for alpha.steam
MULES: Solving for alpha.water
steam fraction, min, max = 0.9900879538 0.9900879538 0.9900879538
water fraction, min, max = 0.009912046207 0.009912046207 0.009912046207
Phase-sum volume fraction, min, max = 1 1 1
MULES: Solving for alpha.steam
MULES: Solving for alpha.water
steam fraction, min, max = 0.9900902243 0.9900902243 0.9900902243
water fraction, min, max = 0.009909775708 0.009909775708 0.009909775708
Phase-sum volume fraction, min, max = 1 1 1
Constructing momentum equations
thermalPhaseChange:Tsat.steam_water: min = 372.76, mean = 372.76, max = 372.76
thermalPhaseChange:Tf.steam_water: min = 372.76, mean = 372.76, max = 372.76
thermalPhaseChange:dmdtf.steam_water: min = 1.399086837, mean = 1.399086837, max = 1.399086837, integral = 1.399086837
diagonal:  Solving for e.steam, Initial residual = 0, Final residual = 0, No Iterations 0
diagonal:  Solving for h.water, Initial residual = 0, Final residual = 0, No Iterations 0
steam min/max T 390.9705318 - 390.9705318
water min/max T 375.243069 - 375.243069
diagonal:  Solving for p_rgh, Initial residual = 0, Final residual = 0, No Iterations 0
PIMPLE: Iteration 5
MULES: Solving for alpha.steam
MULES: Solving for alpha.water
steam fraction, min, max = 0.9900856828 0.9900856828 0.9900856828
water fraction, min, max = 0.009914317217 0.009914317217 0.009914317217
Phase-sum volume fraction, min, max = 1 1 1
MULES: Solving for alpha.steam
MULES: Solving for alpha.water
steam fraction, min, max = 0.9900879538 0.9900879538 0.9900879538
water fraction, min, max = 0.009912046189 0.009912046189 0.009912046189
Phase-sum volume fraction, min, max = 1 1 1
MULES: Solving for alpha.steam
MULES: Solving for alpha.water
steam fraction, min, max = 0.9900902243 0.9900902243 0.9900902243
water fraction, min, max = 0.009909775682 0.009909775682 0.009909775682
Phase-sum volume fraction, min, max = 1 1 1
Constructing momentum equations
thermalPhaseChange:Tsat.steam_water: min = 372.76, mean = 372.76, max = 372.76
thermalPhaseChange:Tf.steam_water: min = 372.76, mean = 372.76, max = 372.76
thermalPhaseChange:dmdtf.steam_water: min = 1.399089979, mean = 1.399089979, max = 1.399089979, integral = 1.399089979
diagonal:  Solving for e.steam, Initial residual = 0, Final residual = 0, No Iterations 0
diagonal:  Solving for h.water, Initial residual = 0, Final residual = 0, No Iterations 0
steam min/max T 390.9705339 - 390.9705339
water min/max T 375.2430691 - 375.2430691
diagonal:  Solving for p_rgh, Initial residual = 0, Final residual = 0, No Iterations 0
Time = 0.04s

ExecutionTime = 1.315811 s  ClockTime = 1 s

Courant Number mean: 0 max: 0
PIMPLE: Iteration 1
MULES: Solving for alpha.steam
MULES: Solving for alpha.water
steam fraction, min, max = 0.9900924943 0.9900924943 0.9900924943
water fraction, min, max = 0.009907505689 0.009907505689 0.009907505689
Phase-sum volume fraction, min, max = 1 1 1
MULES: Solving for alpha.steam
MULES: Solving for alpha.water
steam fraction, min, max = 0.9900947638 0.9900947638 0.9900947638
water fraction, min, max = 0.009905236216 0.009905236216 0.009905236216
Phase-sum volume fraction, min, max = 1 1 1
MULES: Solving for alpha.steam
MULES: Solving for alpha.water
steam fraction, min, max = 0.9900970327 0.9900970327 0.9900970327
water fraction, min, max = 0.009902967264 0.009902967264 0.009902967264
Phase-sum volume fraction, min, max = 1 1 1
Constructing momentum equations
thermalPhaseChange:Tsat.steam_water: min = 372.76, mean = 372.76, max = 372.76
thermalPhaseChange:Tf.steam_water: min = 372.76, mean = 372.76, max = 372.76
thermalPhaseChange:dmdtf.steam_water: min = 1.398128801, mean = 1.398128801, max = 1.398128801, integral = 1.398128801
diagonal:  Solving for e.steam, Initial residual = 0, Final residual = 0, No Iterations 0
diagonal:  Solving for h.water, Initial residual = 0, Final residual = 0, No Iterations 0
steam min/max T 390.2917735 - 390.2917735
water min/max T 374.9316878 - 374.9316878
diagonal:  Solving for p_rgh, Initial residual = 0, Final residual = 0, No Iterations 0
PIMPLE: Iteration 2
MULES: Solving for alpha.steam
MULES: Solving for alpha.water
steam fraction, min, max = 0.9900924943 0.9900924943 0.9900924943
water fraction, min, max = 0.009907505689 0.009907505689 0.009907505689
Phase-sum volume fraction, min, max = 1 1 1
MULES: Solving for alpha.steam
MULES: Solving for alpha.water
steam fraction, min, max = 0.9900947638 0.9900947638 0.9900947638
water fraction, min, max = 0.009905236216 0.009905236216 0.009905236216
Phase-sum volume fraction, min, max = 1 1 1
MULES: Solving for alpha.steam
MULES: Solving for alpha.water
steam fraction, min, max = 0.9900970327 0.9900970327 0.9900970327
water fraction, min, max = 0.009902967263 0.009902967263 0.009902967263
Phase-sum volume fraction, min, max = 1 1 1
Constructing momentum equations
thermalPhaseChange:Tsat.steam_water: min = 372.76, mean = 372.76, max = 372.76
thermalPhaseChange:Tf.steam_water: min = 372.76, mean = 372.76, max = 372.76
thermalPhaseChange:dmdtf.steam_water: min = 1.226562227, mean = 1.226562227, max = 1.226562227, integral = 1.226562227
diagonal:  Solving for e.steam, Initial residual = 0, Final residual = 0, No Iterations 0
diagonal:  Solving for h.water, Initial residual = 0, Final residual = 0, No Iterations 0
steam min/max T 391.3275003 - 391.3275003
water min/max T 374.9310227 - 374.9310227
diagonal:  Solving for p_rgh, Initial residual = 0, Final residual = 0, No Iterations 0
PIMPLE: Iteration 3
MULES: Solving for alpha.steam
MULES: Solving for alpha.water
steam fraction, min, max = 0.9900922158 0.9900922158 0.9900922158
water fraction, min, max = 0.009907784187 0.009907784187 0.009907784187
Phase-sum volume fraction, min, max = 1 1 1
MULES: Solving for alpha.steam
MULES: Solving for alpha.water
steam fraction, min, max = 0.9900942069 0.9900942069 0.9900942069
water fraction, min, max = 0.009905793093 0.009905793093 0.009905793093
Phase-sum volume fraction, min, max = 1 1 1
MULES: Solving for alpha.steam
MULES: Solving for alpha.water
steam fraction, min, max = 0.9900961976 0.9900961976 0.9900961976
water fraction, min, max = 0.009903802399 0.009903802399 0.009903802399
Phase-sum volume fraction, min, max = 1 1 1
Constructing momentum equations
thermalPhaseChange:Tsat.steam_water: min = 372.76, mean = 372.76, max = 372.76
thermalPhaseChange:Tf.steam_water: min = 372.76, mean = 372.76, max = 372.76
thermalPhaseChange:dmdtf.steam_water: min = 1.228729866, mean = 1.228729866, max = 1.228729866, integral = 1.228729866
diagonal:  Solving for e.steam, Initial residual = 0, Final residual = 0, No Iterations 0
diagonal:  Solving for h.water, Initial residual = 0, Final residual = 0, No Iterations 0
steam min/max T 391.3289544 - 391.3289544
water min/max T 374.9310277 - 374.9310277
diagonal:  Solving for p_rgh, Initial residual = 0, Final residual = 0, No Iterations 0
PIMPLE: Iteration 4
MULES: Solving for alpha.steam
MULES: Solving for alpha.water
steam fraction, min, max = 0.9900922192 0.9900922192 0.9900922192
water fraction, min, max = 0.009907780837 0.009907780837 0.009907780837
Phase-sum volume fraction, min, max = 1 1 1
MULES: Solving for alpha.steam
MULES: Solving for alpha.water
steam fraction, min, max = 0.9900942136 0.9900942136 0.9900942136
water fraction, min, max = 0.009905786393 0.009905786393 0.009905786393
Phase-sum volume fraction, min, max = 1 1 1
MULES: Solving for alpha.steam
MULES: Solving for alpha.water
steam fraction, min, max = 0.9900962076 0.9900962076 0.9900962076
water fraction, min, max = 0.009903792352 0.009903792352 0.009903792352
Phase-sum volume fraction, min, max = 1 1 1
Constructing momentum equations
thermalPhaseChange:Tsat.steam_water: min = 372.76, mean = 372.76, max = 372.76
thermalPhaseChange:Tf.steam_water: min = 372.76, mean = 372.76, max = 372.76
thermalPhaseChange:dmdtf.steam_water: min = 1.228734754, mean = 1.228734754, max = 1.228734754, integral = 1.228734754
diagonal:  Solving for e.steam, Initial residual = 0, Final residual = 0, No Iterations 0
diagonal:  Solving for h.water, Initial residual = 0, Final residual = 0, No Iterations 0
steam min/max T 391.328957 - 391.328957
water min/max T 374.9310327 - 374.9310327
diagonal:  Solving for p_rgh, Initial residual = 0, Final residual = 0, No Iterations 0
PIMPLE: Iteration 5
MULES: Solving for alpha.steam
MULES: Solving for alpha.water
steam fraction, min, max = 0.9900922192 0.9900922192 0.9900922192
water fraction, min, max = 0.009907780827 0.009907780827 0.009907780827
Phase-sum volume fraction, min, max = 1 1 1
MULES: Solving for alpha.steam
MULES: Solving for alpha.water
steam fraction, min, max = 0.9900942136 0.9900942136 0.9900942136
water fraction, min, max = 0.009905786374 0.009905786374 0.009905786374
Phase-sum volume fraction, min, max = 1 1 1
MULES: Solving for alpha.steam
MULES: Solving for alpha.water
steam fraction, min, max = 0.9900962077 0.9900962077 0.9900962077
water fraction, min, max = 0.009903792322 0.009903792322 0.009903792322
Phase-sum volume fraction, min, max = 1 1 1
Constructing momentum equations
thermalPhaseChange:Tsat.steam_water: min = 372.76, mean = 372.76, max = 372.76
thermalPhaseChange:Tf.steam_water: min = 372.76, mean = 372.76, max = 372.76
thermalPhaseChange:dmdtf.steam_water: min = 1.228737508, mean = 1.228737508, max = 1.228737508, integral = 1.228737508
diagonal:  Solving for e.steam, Initial residual = 0, Final residual = 0, No Iterations 0
diagonal:  Solving for h.water, Initial residual = 0, Final residual = 0, No Iterations 0
steam min/max T 391.3289588 - 391.3289588
water min/max T 374.9310328 - 374.9310328
diagonal:  Solving for p_rgh, Initial residual = 0, Final residual = 0, No Iterations 0
Time = 0.045s

ExecutionTime = 1.411491 s  ClockTime = 1 s

Courant Number mean: 0 max: 0
PIMPLE: Iteration 1
MULES: Solving for alpha.steam
MULES: Solving for alpha.water
steam fraction, min, max = 0.9900982013 0.9900982013 0.9900982013
water fraction, min, max = 0.009901798667 0.009901798667 0.009901798667
Phase-sum volume fraction, min, max = 1 1 1
MULES: Solving for alpha.steam
MULES: Solving for alpha.water
steam fraction, min, max = 0.9901001946 0.9901001946 0.9901001946
water fraction, min, max = 0.009899805413 0.009899805413 0.009899805413
Phase-sum volume fraction, min, max = 1 1 1
MULES: Solving for alpha.steam
MULES: Solving for alpha.water
steam fraction, min, max = 0.9901021874 0.9901021874 0.9901021874
water fraction, min, max = 0.009897812561 0.009897812561 0.009897812561
Phase-sum volume fraction, min, max = 1 1 1
Constructing momentum equations
thermalPhaseChange:Tsat.steam_water: min = 372.76, mean = 372.76, max = 372.76
thermalPhaseChange:Tf.steam_water: min = 372.76, mean = 372.76, max = 372.76
thermalPhaseChange:dmdtf.steam_water: min = 1.227995661, mean = 1.227995661, max = 1.227995661, integral = 1.227995661
diagonal:  Solving for e.steam, Initial residual = 0, Final residual = 0, No Iterations 0
diagonal:  Solving for h.water, Initial residual = 0, Final residual = 0, No Iterations 0
steam min/max T 390.6721352 - 390.6721352
water min/max T 374.6586014 - 374.6586014
diagonal:  Solving for p_rgh, Initial residual = 0, Final residual = 0, No Iterations 0
PIMPLE: Iteration 2
MULES: Solving for alpha.steam
MULES: Solving for alpha.water
steam fraction, min, max = 0.9900982013 0.9900982013 0.9900982013
water fraction, min, max = 0.009901798667 0.009901798667 0.009901798667
Phase-sum volume fraction, min, max = 1 1 1
MULES: Solving for alpha.steam
MULES: Solving for alpha.water
steam fraction, min, max = 0.9901001946 0.9901001946 0.9901001946
water fraction, min, max = 0.009899805413 0.009899805413 0.009899805413
Phase-sum volume fraction, min, max = 1 1 1
MULES: Solving for alpha.steam
MULES: Solving for alpha.water
steam fraction, min, max = 0.9901021874 0.9901021874 0.9901021874
water fraction, min, max = 0.009897812561 0.009897812561 0.009897812561
Phase-sum volume fraction, min, max = 1 1 1
Constructing momentum equations
thermalPhaseChange:Tsat.steam_water: min = 372.76, mean = 372.76, max = 372.76
thermalPhaseChange:Tf.steam_water: min = 372.76, mean = 372.76, max = 372.76
thermalPhaseChange:dmdtf.steam_water: min = 1.077820442, mean = 1.077820442, max = 1.077820442, integral = 1.077820442
diagonal:  Solving for e.steam, Initial residual = 0, Final residual = 0, No Iterations 0
diagonal:  Solving for h.water, Initial residual = 0, Final residual = 0, No Iterations 0
steam min/max T 391.5762543 - 391.5762543
water min/max T 374.6580601 - 374.6580601
diagonal:  Solving for p_rgh, Initial residual = 0, Final residual = 0, No Iterations 0
PIMPLE: Iteration 3
MULES: Solving for alpha.steam
MULES: Solving for alpha.water
steam fraction, min, max = 0.9900979576 0.9900979576 0.9900979576
water fraction, min, max = 0.009902042434 0.009902042434 0.009902042434
Phase-sum volume fraction, min, max = 1 1 1
MULES: Solving for alpha.steam
MULES: Solving for alpha.water
steam fraction, min, max = 0.9900997071 0.9900997071 0.9900997071
water fraction, min, max = 0.009900292855 0.009900292855 0.009900292855
Phase-sum volume fraction, min, max = 1 1 1
MULES: Solving for alpha.steam
MULES: Solving for alpha.water
steam fraction, min, max = 0.9901014564 0.9901014564 0.9901014564
water fraction, min, max = 0.009898543585 0.009898543585 0.009898543585
Phase-sum volume fraction, min, max = 1 1 1
Constructing momentum equations
thermalPhaseChange:Tsat.steam_water: min = 372.76, mean = 372.76, max = 372.76
thermalPhaseChange:Tf.steam_water: min = 372.76, mean = 372.76, max = 372.76
thermalPhaseChange:dmdtf.steam_water: min = 1.079722429, mean = 1.079722429, max = 1.079722429, integral = 1.079722429
diagonal:  Solving for e.steam, Initial residual = 0, Final residual = 0, No Iterations 0
diagonal:  Solving for h.water, Initial residual = 0, Final residual = 0, No Iterations 0
steam min/max T 391.577517 - 391.577517
water min/max T 374.6580663 - 374.6580663
diagonal:  Solving for p_rgh, Initial residual = 0, Final residual = 0, No Iterations 0
PIMPLE: Iteration 4
MULES: Solving for alpha.steam
MULES: Solving for alpha.water
steam fraction, min, max = 0.9900979605 0.9900979605 0.9900979605
water fraction, min, max = 0.009902039476 0.009902039476 0.009902039476
Phase-sum volume fraction, min, max = 1 1 1
MULES: Solving for alpha.steam
MULES: Solving for alpha.water
steam fraction, min, max = 0.9900997131 0.9900997131 0.9900997131
water fraction, min, max = 0.00990028694 0.00990028694 0.00990028694
Phase-sum volume fraction, min, max = 1 1 1
MULES: Solving for alpha.steam
MULES: Solving for alpha.water
steam fraction, min, max = 0.9901014653 0.9901014653 0.9901014653
water fraction, min, max = 0.009898534714 0.009898534714 0.009898534714
Phase-sum volume fraction, min, max = 1 1 1
Constructing momentum equations
thermalPhaseChange:Tsat.steam_water: min = 372.76, mean = 372.76, max = 372.76
thermalPhaseChange:Tf.steam_water: min = 372.76, mean = 372.76, max = 372.76
thermalPhaseChange:dmdtf.steam_water: min = 1.07972781, mean = 1.07972781, max = 1.07972781, integral = 1.07972781
diagonal:  Solving for e.steam, Initial residual = 0, Final residual = 0, No Iterations 0
diagonal:  Solving for h.water, Initial residual = 0, Final residual = 0, No Iterations 0
steam min/max T 391.5775199 - 391.5775199
water min/max T 374.6580707 - 374.6580707
diagonal:  Solving for p_rgh, Initial residual = 0, Final residual = 0, No Iterations 0
PIMPLE: Iteration 5
MULES: Solving for alpha.steam
MULES: Solving for alpha.water
steam fraction, min, max = 0.9900979605 0.9900979605 0.9900979605
water fraction, min, max = 0.009902039465 0.009902039465 0.009902039465
Phase-sum volume fraction, min, max = 1 1 1
MULES: Solving for alpha.steam
MULES: Solving for alpha.water
steam fraction, min, max = 0.9900997131 0.9900997131 0.9900997131
water fraction, min, max = 0.009900286919 0.009900286919 0.009900286919
Phase-sum volume fraction, min, max = 1 1 1
MULES: Solving for alpha.steam
MULES: Solving for alpha.water
steam fraction, min, max = 0.9901014653 0.9901014653 0.9901014653
water fraction, min, max = 0.009898534683 0.009898534683 0.009898534683
Phase-sum volume fraction, min, max = 1 1 1
Constructing momentum equations
thermalPhaseChange:Tsat.steam_water: min = 372.76, mean = 372.76, max = 372.76
thermalPhaseChange:Tf.steam_water: min = 372.76, mean = 372.76, max = 372.76
thermalPhaseChange:dmdtf.steam_water: min = 1.079730227, mean = 1.079730227, max = 1.079730227, integral = 1.079730227
diagonal:  Solving for e.steam, Initial residual = 0, Final residual = 0, No Iterations 0
diagonal:  Solving for h.water, Initial residual = 0, Final residual = 0, No Iterations 0
steam min/max T 391.5775214 - 391.5775214
water min/max T 374.6580708 - 374.6580708
diagonal:  Solving for p_rgh, Initial residual = 0, Final residual = 0, No Iterations 0
Time = 0.05s

ExecutionTime = 1.522802 s  ClockTime = 1 s

Courant Number mean: 0 max: 0
PIMPLE: Iteration 1
MULES: Solving for alpha.steam
MULES: Solving for alpha.water
steam fraction, min, max = 0.9901032172 0.9901032172 0.9901032172
water fraction, min, max = 0.009896782753 0.009896782753 0.009896782753
Phase-sum volume fraction, min, max = 1 1 1
MULES: Solving for alpha.steam
MULES: Solving for alpha.water
steam fraction, min, max = 0.9901049689 0.9901049689 0.9901049689
water fraction, min, max = 0.009895031134 0.009895031134 0.009895031134
Phase-sum volume fraction, min, max = 1 1 1
MULES: Solving for alpha.steam
MULES: Solving for alpha.water
steam fraction, min, max = 0.9901067202 0.9901067202 0.9901067202
water fraction, min, max = 0.009893279824 0.009893279824 0.009893279824
Phase-sum volume fraction, min, max = 1 1 1
Constructing momentum equations
thermalPhaseChange:Tsat.steam_water: min = 372.76, mean = 372.76, max = 372.76
thermalPhaseChange:Tf.steam_water: min = 372.76, mean = 372.76, max = 372.76
thermalPhaseChange:dmdtf.steam_water: min = 1.079157068, mean = 1.079157068, max = 1.079157068, integral = 1.079157068
diagonal:  Solving for e.steam, Initial residual = 0, Final residual = 0, No Iterations 0
diagonal:  Solving for h.water, Initial residual = 0, Final residual = 0, No Iterations 0
steam min/max T 390.9427552 - 390.9427552
water min/max T 374.4197536 - 374.4197536
diagonal:  Solving for p_rgh, Initial residual = 0, Final residual = 0, No Iterations 0
PIMPLE: Iteration 2
MULES: Solving for alpha.steam
MULES: Solving for alpha.water
steam fraction, min, max = 0.9901032172 0.9901032172 0.9901032172
water fraction, min, max = 0.009896782753 0.009896782753 0.009896782753
Phase-sum volume fraction, min, max = 1 1 1
MULES: Solving for alpha.steam
MULES: Solving for alpha.water
steam fraction, min, max = 0.9901049689 0.9901049689 0.9901049689
water fraction, min, max = 0.009895031134 0.009895031134 0.009895031134
Phase-sum volume fraction, min, max = 1 1 1
MULES: Solving for alpha.steam
MULES: Solving for alpha.water
steam fraction, min, max = 0.9901067202 0.9901067202 0.9901067202
water fraction, min, max = 0.009893279824 0.009893279824 0.009893279824
Phase-sum volume fraction, min, max = 1 1 1
Constructing momentum equations
thermalPhaseChange:Tsat.steam_water: min = 372.76, mean = 372.76, max = 372.76
thermalPhaseChange:Tf.steam_water: min = 372.76, mean = 372.76, max = 372.76
thermalPhaseChange:dmdtf.steam_water: min = 0.9477061086, mean = 0.9477061086, max = 0.9477061086, integral = 0.9477061086
diagonal:  Solving for e.steam, Initial residual = 0, Final residual = 0, No Iterations 0
diagonal:  Solving for h.water, Initial residual = 0, Final residual = 0, No Iterations 0
steam min/max T 391.7329158 - 391.7329158
water min/max T 374.4193118 - 374.4193118
diagonal:  Solving for p_rgh, Initial residual = 0, Final residual = 0, No Iterations 0
PIMPLE: Iteration 3
MULES: Solving for alpha.steam
MULES: Solving for alpha.water
steam fraction, min, max = 0.9901030039 0.9901030039 0.9901030039
water fraction, min, max = 0.009896996121 0.009896996121 0.009896996121
Phase-sum volume fraction, min, max = 1 1 1
MULES: Solving for alpha.steam
MULES: Solving for alpha.water
steam fraction, min, max = 0.9901045422 0.9901045422 0.9901045422
water fraction, min, max = 0.009895457798 0.009895457798 0.009895457798
Phase-sum volume fraction, min, max = 1 1 1
MULES: Solving for alpha.steam
MULES: Solving for alpha.water
steam fraction, min, max = 0.9901060803 0.9901060803 0.9901060803
water fraction, min, max = 0.009893919714 0.009893919714 0.009893919714
Phase-sum volume fraction, min, max = 1 1 1
Constructing momentum equations
thermalPhaseChange:Tsat.steam_water: min = 372.76, mean = 372.76, max = 372.76
thermalPhaseChange:Tf.steam_water: min = 372.76, mean = 372.76, max = 372.76
thermalPhaseChange:dmdtf.steam_water: min = 0.9493764114, mean = 0.9493764114, max = 0.9493764114, integral = 0.9493764114
diagonal:  Solving for e.steam, Initial residual = 0, Final residual = 0, No Iterations 0
diagonal:  Solving for h.water, Initial residual = 0, Final residual = 0, No Iterations 0
steam min/max T 391.7340154 - 391.7340154
water min/max T 374.4193186 - 374.4193186
diagonal:  Solving for p_rgh, Initial residual = 0, Final residual = 0, No Iterations 0
PIMPLE: Iteration 4
MULES: Solving for alpha.steam
MULES: Solving for alpha.water
steam fraction, min, max = 0.9901030065 0.9901030065 0.9901030065
water fraction, min, max = 0.009896993509 0.009896993509 0.009896993509
Phase-sum volume fraction, min, max = 1 1 1
MULES: Solving for alpha.steam
MULES: Solving for alpha.water
steam fraction, min, max = 0.9901045474 0.9901045474 0.9901045474
water fraction, min, max = 0.009895452575 0.009895452575 0.009895452575
Phase-sum volume fraction, min, max = 1 1 1
MULES: Solving for alpha.steam
MULES: Solving for alpha.water
steam fraction, min, max = 0.9901060881 0.9901060881 0.9901060881
water fraction, min, max = 0.009893911881 0.009893911881 0.009893911881
Phase-sum volume fraction, min, max = 1 1 1
Constructing momentum equations
thermalPhaseChange:Tsat.steam_water: min = 372.76, mean = 372.76, max = 372.76
thermalPhaseChange:Tf.steam_water: min = 372.76, mean = 372.76, max = 372.76
thermalPhaseChange:dmdtf.steam_water: min = 0.9493819156, mean = 0.9493819156, max = 0.9493819156, integral = 0.9493819156
diagonal:  Solving for e.steam, Initial residual = 0, Final residual = 0, No Iterations 0
diagonal:  Solving for h.water, Initial residual = 0, Final residual = 0, No Iterations 0
steam min/max T 391.7340184 - 391.7340184
water min/max T 374.4193224 - 374.4193224
diagonal:  Solving for p_rgh, Initial residual = 0, Final residual = 0, No Iterations 0
[...]
MULES: Solving for alpha.water
steam fraction, min, max = 0.9901485019 0.9901485019 0.9901485019
water fraction, min, max = 0.009851498062 0.009851498062 0.009851498062
Phase-sum volume fraction, min, max = 1 1 1
MULES: Solving for alpha.steam
MULES: Solving for alpha.water
steam fraction, min, max = 0.9901485038 0.9901485038 0.9901485038
water fraction, min, max = 0.009851496249 0.009851496249 0.009851496249
Phase-sum volume fraction, min, max = 1 1 1
MULES: Solving for alpha.steam
MULES: Solving for alpha.water
steam fraction, min, max = 0.9901485056 0.9901485056 0.9901485056
water fraction, min, max = 0.009851494436 0.009851494436 0.009851494436
Phase-sum volume fraction, min, max = 1 1 1
Constructing momentum equations
thermalPhaseChange:Tsat.steam_water: min = 372.76, mean = 372.76, max = 372.76
thermalPhaseChange:Tf.steam_water: min = 372.76, mean = 372.76, max = 372.76
thermalPhaseChange:dmdtf.steam_water: min = 0.00109210358, mean = 0.00109210358, max = 0.00109210358, integral = 0.00109210358
diagonal:  Solving for e.steam, Initial residual = 0, Final residual = 0, No Iterations 0
diagonal:  Solving for h.water, Initial residual = 0, Final residual = 0, No Iterations 0
steam min/max T 373.2293924 - 373.2293924
water min/max T 372.7600001 - 372.7600001
diagonal:  Solving for p_rgh, Initial residual = 0, Final residual = 0, No Iterations 0
PIMPLE: Iteration 3
MULES: Solving for alpha.steam
MULES: Solving for alpha.water
steam fraction, min, max = 0.9901485019 0.9901485019 0.9901485019
water fraction, min, max = 0.009851498102 0.009851498102 0.009851498102
Phase-sum volume fraction, min, max = 1 1 1
MULES: Solving for alpha.steam
MULES: Solving for alpha.water
steam fraction, min, max = 0.9901485037 0.9901485037 0.9901485037
water fraction, min, max = 0.00985149633 0.00985149633 0.00985149633
Phase-sum volume fraction, min, max = 1 1 1
MULES: Solving for alpha.steam
MULES: Solving for alpha.water
steam fraction, min, max = 0.9901485054 0.9901485054 0.9901485054
water fraction, min, max = 0.009851494558 0.009851494558 0.009851494558
Phase-sum volume fraction, min, max = 1 1 1
Constructing momentum equations
thermalPhaseChange:Tsat.steam_water: min = 372.76, mean = 372.76, max = 372.76
thermalPhaseChange:Tf.steam_water: min = 372.76, mean = 372.76, max = 372.76
thermalPhaseChange:dmdtf.steam_water: min = 0.001094256169, mean = 0.001094256169, max = 0.001094256169, integral = 0.001094256169
diagonal:  Solving for e.steam, Initial residual = 0, Final residual = 0, No Iterations 0
diagonal:  Solving for h.water, Initial residual = 0, Final residual = 0, No Iterations 0
steam min/max T 373.2293939 - 373.2293939
water min/max T 372.76 - 372.76
diagonal:  Solving for p_rgh, Initial residual = 0, Final residual = 0, No Iterations 0
PIMPLE: Iteration 4
MULES: Solving for alpha.steam
MULES: Solving for alpha.water
steam fraction, min, max = 0.9901485019 0.9901485019 0.9901485019
water fraction, min, max = 0.009851498099 0.009851498099 0.009851498099
Phase-sum volume fraction, min, max = 1 1 1
MULES: Solving for alpha.steam
MULES: Solving for alpha.water
steam fraction, min, max = 0.9901485037 0.9901485037 0.9901485037
water fraction, min, max = 0.009851496323 0.009851496323 0.009851496323
Phase-sum volume fraction, min, max = 1 1 1
MULES: Solving for alpha.steam
MULES: Solving for alpha.water
steam fraction, min, max = 0.9901485055 0.9901485055 0.9901485055
water fraction, min, max = 0.009851494547 0.009851494547 0.009851494547
Phase-sum volume fraction, min, max = 1 1 1
Constructing momentum equations
thermalPhaseChange:Tsat.steam_water: min = 372.76, mean = 372.76, max = 372.76
thermalPhaseChange:Tf.steam_water: min = 372.76, mean = 372.76, max = 372.76
thermalPhaseChange:dmdtf.steam_water: min = 0.001094214839, mean = 0.001094214839, max = 0.001094214839, integral = 0.001094214839
diagonal:  Solving for e.steam, Initial residual = 0, Final residual = 0, No Iterations 0
diagonal:  Solving for h.water, Initial residual = 0, Final residual = 0, No Iterations 0
steam min/max T 373.2293939 - 373.2293939
water min/max T 372.76 - 372.76
diagonal:  Solving for p_rgh, Initial residual = 0, Final residual = 0, No Iterations 0
PIMPLE: Iteration 5
MULES: Solving for alpha.steam
MULES: Solving for alpha.water
steam fraction, min, max = 0.9901485019 0.9901485019 0.9901485019
water fraction, min, max = 0.009851498099 0.009851498099 0.009851498099
Phase-sum volume fraction, min, max = 1 1 1
MULES: Solving for alpha.steam
MULES: Solving for alpha.water
steam fraction, min, max = 0.9901485037 0.9901485037 0.9901485037
water fraction, min, max = 0.009851496323 0.009851496323 0.009851496323
Phase-sum volume fraction, min, max = 1 1 1
MULES: Solving for alpha.steam
MULES: Solving for alpha.water
steam fraction, min, max = 0.9901485055 0.9901485055 0.9901485055
water fraction, min, max = 0.009851494548 0.009851494548 0.009851494548
Phase-sum volume fraction, min, max = 1 1 1
Constructing momentum equations
thermalPhaseChange:Tsat.steam_water: min = 372.76, mean = 372.76, max = 372.76
thermalPhaseChange:Tf.steam_water: min = 372.76, mean = 372.76, max = 372.76
thermalPhaseChange:dmdtf.steam_water: min = 0.001094218597, mean = 0.001094218597, max = 0.001094218597, integral = 0.001094218597
diagonal:  Solving for e.steam, Initial residual = 0, Final residual = 0, No Iterations 0
diagonal:  Solving for h.water, Initial residual = 0, Final residual = 0, No Iterations 0
steam min/max T 373.2293939 - 373.2293939
water min/max T 372.76 - 372.76
diagonal:  Solving for p_rgh, Initial residual = 0, Final residual = 0, No Iterations 0
Time = 0.99s

ExecutionTime = 15.969242 s  ClockTime = 21 s

Courant Number mean: 0 max: 0
PIMPLE: Iteration 1
MULES: Solving for alpha.steam
MULES: Solving for alpha.water
steam fraction, min, max = 0.9901485072 0.9901485072 0.9901485072
water fraction, min, max = 0.009851492772 0.009851492772 0.009851492772
Phase-sum volume fraction, min, max = 1 1 1
MULES: Solving for alpha.steam
MULES: Solving for alpha.water
steam fraction, min, max = 0.990148509 0.990148509 0.990148509
water fraction, min, max = 0.009851490996 0.009851490996 0.009851490996
Phase-sum volume fraction, min, max = 1 1 1
MULES: Solving for alpha.steam
MULES: Solving for alpha.water
steam fraction, min, max = 0.9901485108 0.9901485108 0.9901485108
water fraction, min, max = 0.00985148922 0.00985148922 0.00985148922
Phase-sum volume fraction, min, max = 1 1 1
Constructing momentum equations
thermalPhaseChange:Tsat.steam_water: min = 372.76, mean = 372.76, max = 372.76
thermalPhaseChange:Tf.steam_water: min = 372.76, mean = 372.76, max = 372.76
thermalPhaseChange:dmdtf.steam_water: min = 0.001094218051, mean = 0.001094218051, max = 0.001094218051, integral = 0.001094218051
diagonal:  Solving for e.steam, Initial residual = 0, Final residual = 0, No Iterations 0
diagonal:  Solving for h.water, Initial residual = 0, Final residual = 0, No Iterations 0
steam min/max T 373.2189721 - 373.2189721
water min/max T 372.7599995 - 372.7599995
diagonal:  Solving for p_rgh, Initial residual = 0, Final residual = 0, No Iterations 0
PIMPLE: Iteration 2
MULES: Solving for alpha.steam
MULES: Solving for alpha.water
steam fraction, min, max = 0.9901485072 0.9901485072 0.9901485072
water fraction, min, max = 0.009851492772 0.009851492772 0.009851492772
Phase-sum volume fraction, min, max = 1 1 1
MULES: Solving for alpha.steam
MULES: Solving for alpha.water
steam fraction, min, max = 0.990148509 0.990148509 0.990148509
water fraction, min, max = 0.009851490996 0.009851490996 0.009851490996
Phase-sum volume fraction, min, max = 1 1 1
MULES: Solving for alpha.steam
MULES: Solving for alpha.water
steam fraction, min, max = 0.9901485108 0.9901485108 0.9901485108
water fraction, min, max = 0.00985148922 0.00985148922 0.00985148922
Phase-sum volume fraction, min, max = 1 1 1
Constructing momentum equations
thermalPhaseChange:Tsat.steam_water: min = 372.76, mean = 372.76, max = 372.76
thermalPhaseChange:Tf.steam_water: min = 372.76, mean = 372.76, max = 372.76
thermalPhaseChange:dmdtf.steam_water: min = 0.001069665767, mean = 0.001069665767, max = 0.001069665767, integral = 0.001069665767
diagonal:  Solving for e.steam, Initial residual = 0, Final residual = 0, No Iterations 0
diagonal:  Solving for h.water, Initial residual = 0, Final residual = 0, No Iterations 0
steam min/max T 373.2197487 - 373.2197487
water min/max T 372.7600001 - 372.7600001
diagonal:  Solving for p_rgh, Initial residual = 0, Final residual = 0, No Iterations 0
PIMPLE: Iteration 3
MULES: Solving for alpha.steam
MULES: Solving for alpha.water
steam fraction, min, max = 0.9901485072 0.9901485072 0.9901485072
water fraction, min, max = 0.009851492812 0.009851492812 0.009851492812
Phase-sum volume fraction, min, max = 1 1 1
MULES: Solving for alpha.steam
MULES: Solving for alpha.water
steam fraction, min, max = 0.9901485089 0.9901485089 0.9901485089
water fraction, min, max = 0.009851491076 0.009851491076 0.009851491076
Phase-sum volume fraction, min, max = 1 1 1
MULES: Solving for alpha.steam
MULES: Solving for alpha.water
steam fraction, min, max = 0.9901485107 0.9901485107 0.9901485107
water fraction, min, max = 0.00985148934 0.00985148934 0.00985148934
Phase-sum volume fraction, min, max = 1 1 1
Constructing momentum equations
thermalPhaseChange:Tsat.steam_water: min = 372.76, mean = 372.76, max = 372.76
thermalPhaseChange:Tf.steam_water: min = 372.76, mean = 372.76, max = 372.76
thermalPhaseChange:dmdtf.steam_water: min = 0.001071774063, mean = 0.001071774063, max = 0.001071774063, integral = 0.001071774063
diagonal:  Solving for e.steam, Initial residual = 0, Final residual = 0, No Iterations 0
diagonal:  Solving for h.water, Initial residual = 0, Final residual = 0, No Iterations 0
steam min/max T 373.2197502 - 373.2197502
water min/max T 372.76 - 372.76
diagonal:  Solving for p_rgh, Initial residual = 0, Final residual = 0, No Iterations 0
PIMPLE: Iteration 4
MULES: Solving for alpha.steam
MULES: Solving for alpha.water
steam fraction, min, max = 0.9901485072 0.9901485072 0.9901485072
water fraction, min, max = 0.009851492808 0.009851492808 0.009851492808
Phase-sum volume fraction, min, max = 1 1 1
MULES: Solving for alpha.steam
MULES: Solving for alpha.water
steam fraction, min, max = 0.9901485089 0.9901485089 0.9901485089
water fraction, min, max = 0.009851491069 0.009851491069 0.009851491069
Phase-sum volume fraction, min, max = 1 1 1
MULES: Solving for alpha.steam
MULES: Solving for alpha.water
steam fraction, min, max = 0.9901485107 0.9901485107 0.9901485107
water fraction, min, max = 0.00985148933 0.00985148933 0.00985148933
Phase-sum volume fraction, min, max = 1 1 1
Constructing momentum equations
thermalPhaseChange:Tsat.steam_water: min = 372.76, mean = 372.76, max = 372.76
thermalPhaseChange:Tf.steam_water: min = 372.76, mean = 372.76, max = 372.76
thermalPhaseChange:dmdtf.steam_water: min = 0.001071733583, mean = 0.001071733583, max = 0.001071733583, integral = 0.001071733583
diagonal:  Solving for e.steam, Initial residual = 0, Final residual = 0, No Iterations 0
diagonal:  Solving for h.water, Initial residual = 0, Final residual = 0, No Iterations 0
steam min/max T 373.2197502 - 373.2197502
water min/max T 372.76 - 372.76
diagonal:  Solving for p_rgh, Initial residual = 0, Final residual = 0, No Iterations 0
PIMPLE: Iteration 5
MULES: Solving for alpha.steam
MULES: Solving for alpha.water
steam fraction, min, max = 0.9901485072 0.9901485072 0.9901485072
water fraction, min, max = 0.009851492808 0.009851492808 0.009851492808
Phase-sum volume fraction, min, max = 1 1 1
MULES: Solving for alpha.steam
MULES: Solving for alpha.water
steam fraction, min, max = 0.9901485089 0.9901485089 0.9901485089
water fraction, min, max = 0.009851491069 0.009851491069 0.009851491069
Phase-sum volume fraction, min, max = 1 1 1
MULES: Solving for alpha.steam
MULES: Solving for alpha.water
steam fraction, min, max = 0.9901485107 0.9901485107 0.9901485107
water fraction, min, max = 0.00985148933 0.00985148933 0.00985148933
Phase-sum volume fraction, min, max = 1 1 1
Constructing momentum equations
thermalPhaseChange:Tsat.steam_water: min = 372.76, mean = 372.76, max = 372.76
thermalPhaseChange:Tf.steam_water: min = 372.76, mean = 372.76, max = 372.76
thermalPhaseChange:dmdtf.steam_water: min = 0.001071737263, mean = 0.001071737263, max = 0.001071737263, integral = 0.001071737263
diagonal:  Solving for e.steam, Initial residual = 0, Final residual = 0, No Iterations 0
diagonal:  Solving for h.water, Initial residual = 0, Final residual = 0, No Iterations 0
steam min/max T 373.2197502 - 373.2197502
water min/max T 372.76 - 372.76
diagonal:  Solving for p_rgh, Initial residual = 0, Final residual = 0, No Iterations 0
Time = 0.995s

ExecutionTime = 16.036503 s  ClockTime = 22 s

Courant Number mean: 0 max: 0
PIMPLE: Iteration 1
MULES: Solving for alpha.steam
MULES: Solving for alpha.water
steam fraction, min, max = 0.9901485124 0.9901485124 0.9901485124
water fraction, min, max = 0.00985148759 0.00985148759 0.00985148759
Phase-sum volume fraction, min, max = 1 1 1
MULES: Solving for alpha.steam
MULES: Solving for alpha.water
steam fraction, min, max = 0.9901485141 0.9901485141 0.9901485141
water fraction, min, max = 0.009851485851 0.009851485851 0.009851485851
Phase-sum volume fraction, min, max = 1 1 1
MULES: Solving for alpha.steam
MULES: Solving for alpha.water
steam fraction, min, max = 0.9901485159 0.9901485159 0.9901485159
water fraction, min, max = 0.009851484112 0.009851484112 0.009851484112
Phase-sum volume fraction, min, max = 1 1 1
Constructing momentum equations
thermalPhaseChange:Tsat.steam_water: min = 372.76, mean = 372.76, max = 372.76
thermalPhaseChange:Tf.steam_water: min = 372.76, mean = 372.76, max = 372.76
thermalPhaseChange:dmdtf.steam_water: min = 0.00107173674, mean = 0.00107173674, max = 0.00107173674, integral = 0.00107173674
diagonal:  Solving for e.steam, Initial residual = 0, Final residual = 0, No Iterations 0
diagonal:  Solving for h.water, Initial residual = 0, Final residual = 0, No Iterations 0
steam min/max T 373.2095427 - 373.2095427
water min/max T 372.7599995 - 372.7599995
diagonal:  Solving for p_rgh, Initial residual = 0, Final residual = 0, No Iterations 0
PIMPLE: Iteration 2
MULES: Solving for alpha.steam
MULES: Solving for alpha.water
steam fraction, min, max = 0.9901485124 0.9901485124 0.9901485124
water fraction, min, max = 0.00985148759 0.00985148759 0.00985148759
Phase-sum volume fraction, min, max = 1 1 1
MULES: Solving for alpha.steam
MULES: Solving for alpha.water
steam fraction, min, max = 0.9901485141 0.9901485141 0.9901485141
water fraction, min, max = 0.009851485851 0.009851485851 0.009851485851
Phase-sum volume fraction, min, max = 1 1 1
MULES: Solving for alpha.steam
MULES: Solving for alpha.water
steam fraction, min, max = 0.9901485159 0.9901485159 0.9901485159
water fraction, min, max = 0.009851484112 0.009851484112 0.009851484112
Phase-sum volume fraction, min, max = 1 1 1
Constructing momentum equations
thermalPhaseChange:Tsat.steam_water: min = 372.76, mean = 372.76, max = 372.76
thermalPhaseChange:Tf.steam_water: min = 372.76, mean = 372.76, max = 372.76
thermalPhaseChange:dmdtf.steam_water: min = 0.00104768929, mean = 0.00104768929, max = 0.00104768929, integral = 0.00104768929
diagonal:  Solving for e.steam, Initial residual = 0, Final residual = 0, No Iterations 0
diagonal:  Solving for h.water, Initial residual = 0, Final residual = 0, No Iterations 0
steam min/max T 373.2103033 - 373.2103033
water min/max T 372.7600001 - 372.7600001
diagonal:  Solving for p_rgh, Initial residual = 0, Final residual = 0, No Iterations 0
PIMPLE: Iteration 3
MULES: Solving for alpha.steam
MULES: Solving for alpha.water
steam fraction, min, max = 0.9901485124 0.9901485124 0.9901485124
water fraction, min, max = 0.00985148763 0.00985148763 0.00985148763
Phase-sum volume fraction, min, max = 1 1 1
MULES: Solving for alpha.steam
MULES: Solving for alpha.water
steam fraction, min, max = 0.9901485141 0.9901485141 0.9901485141
water fraction, min, max = 0.009851485929 0.009851485929 0.009851485929
Phase-sum volume fraction, min, max = 1 1 1
MULES: Solving for alpha.steam
MULES: Solving for alpha.water
steam fraction, min, max = 0.9901485158 0.9901485158 0.9901485158
water fraction, min, max = 0.009851484229 0.009851484229 0.009851484229
Phase-sum volume fraction, min, max = 1 1 1
Constructing momentum equations
thermalPhaseChange:Tsat.steam_water: min = 372.76, mean = 372.76, max = 372.76
thermalPhaseChange:Tf.steam_water: min = 372.76, mean = 372.76, max = 372.76
thermalPhaseChange:dmdtf.steam_water: min = 0.001049754206, mean = 0.001049754206, max = 0.001049754206, integral = 0.001049754206
diagonal:  Solving for e.steam, Initial residual = 0, Final residual = 0, No Iterations 0
diagonal:  Solving for h.water, Initial residual = 0, Final residual = 0, No Iterations 0
steam min/max T 373.2103048 - 373.2103048
water min/max T 372.76 - 372.76
diagonal:  Solving for p_rgh, Initial residual = 0, Final residual = 0, No Iterations 0
PIMPLE: Iteration 4
MULES: Solving for alpha.steam
MULES: Solving for alpha.water
steam fraction, min, max = 0.9901485124 0.9901485124 0.9901485124
water fraction, min, max = 0.009851487626 0.009851487626 0.009851487626
Phase-sum volume fraction, min, max = 1 1 1
MULES: Solving for alpha.steam
MULES: Solving for alpha.water
steam fraction, min, max = 0.9901485141 0.9901485141 0.9901485141
water fraction, min, max = 0.009851485923 0.009851485923 0.009851485923
Phase-sum volume fraction, min, max = 1 1 1
MULES: Solving for alpha.steam
MULES: Solving for alpha.water
steam fraction, min, max = 0.9901485158 0.9901485158 0.9901485158
water fraction, min, max = 0.009851484219 0.009851484219 0.009851484219
Phase-sum volume fraction, min, max = 1 1 1
Constructing momentum equations
thermalPhaseChange:Tsat.steam_water: min = 372.76, mean = 372.76, max = 372.76
thermalPhaseChange:Tf.steam_water: min = 372.76, mean = 372.76, max = 372.76
thermalPhaseChange:dmdtf.steam_water: min = 0.001049714558, mean = 0.001049714558, max = 0.001049714558, integral = 0.001049714558
diagonal:  Solving for e.steam, Initial residual = 0, Final residual = 0, No Iterations 0
diagonal:  Solving for h.water, Initial residual = 0, Final residual = 0, No Iterations 0
steam min/max T 373.2103048 - 373.2103048
water min/max T 372.76 - 372.76
diagonal:  Solving for p_rgh, Initial residual = 0, Final residual = 0, No Iterations 0
PIMPLE: Iteration 5
MULES: Solving for alpha.steam
MULES: Solving for alpha.water
steam fraction, min, max = 0.9901485124 0.9901485124 0.9901485124
water fraction, min, max = 0.009851487626 0.009851487626 0.009851487626
Phase-sum volume fraction, min, max = 1 1 1
MULES: Solving for alpha.steam
MULES: Solving for alpha.water
steam fraction, min, max = 0.9901485141 0.9901485141 0.9901485141
water fraction, min, max = 0.009851485923 0.009851485923 0.009851485923
Phase-sum volume fraction, min, max = 1 1 1
MULES: Solving for alpha.steam
MULES: Solving for alpha.water
steam fraction, min, max = 0.9901485158 0.9901485158 0.9901485158
water fraction, min, max = 0.009851484219 0.009851484219 0.009851484219
Phase-sum volume fraction, min, max = 1 1 1
Constructing momentum equations
thermalPhaseChange:Tsat.steam_water: min = 372.76, mean = 372.76, max = 372.76
thermalPhaseChange:Tf.steam_water: min = 372.76, mean = 372.76, max = 372.76
thermalPhaseChange:dmdtf.steam_water: min = 0.001049718162, mean = 0.001049718162, max = 0.001049718162, integral = 0.001049718162
diagonal:  Solving for e.steam, Initial residual = 0, Final residual = 0, No Iterations 0
diagonal:  Solving for h.water, Initial residual = 0, Final residual = 0, No Iterations 0
steam min/max T 373.2103048 - 373.2103048
water min/max T 372.76 - 372.76
diagonal:  Solving for p_rgh, Initial residual = 0, Final residual = 0, No Iterations 0
Time = 1s

ExecutionTime = 16.089875 s  ClockTime = 22 s

End

