/*---------------------------------------------------------------------------*\
  =========                 |
  \\      /  F ield         | OpenFOAM: The Open Source CFD Toolbox
   \\    /   O peration     | Website:  https://openfoam.org
    \\  /    A nd           | Version:  12
     \\/     M anipulation  |
\*---------------------------------------------------------------------------*/
Build  : 12-cc05c1b03c38
Exec   : foamRun
Date   : Oct 10 2024
Time   : 23:16:42
Host   : "DESKTOP-KBPC6IC"
PID    : 4694
I/O    : uncollated
Case   : /home/as/openfoam/OpenFOAM-12/test/multiphaseEuler/thermal/waterEvaporation
nProcs : 1
sigFpe : Enabling floating point exception trapping (FOAM_SIGFPE).
fileModificationChecking : Monitoring run-time modified files using timeStampMaster (fileModificationSkew 10)
allowSystemOperations : Allowing user-supplied system call operations

// * * * * * * * * * * * * * * * * * * * * * * * * * * * * * * * * * * * * * //
Create time

Create mesh for time = 0

Selecting solver multiphaseEuler
Selecting phaseSystem thermalPhaseChangeMultiphaseSystem
No MRF models present

Selecting phaseModel for steam: purePhaseModel
Selecting diameterModel for phase steam: none
Selecting thermodynamics package 
{
    type            heRhoThermo;
    mixture         pureMixture;
    transport       const;
    thermo          eConst;
    equationOfState perfectGas;
    specie          specie;
    energy          sensibleInternalEnergy;
}

Calculating face flux field phi.steam
Selecting turbulence model type laminar
Selecting laminar stress model Stokes
Selecting thermophysical transport type laminar
Selecting default laminar thermophysical transport model unityLewisFourier
Selecting phaseModel for water: purePhaseModel
Selecting diameterModel for phase water: constant
Selecting thermodynamics package 
{
    type            heRhoThermo;
    mixture         pureMixture;
    transport       const;
    thermo          eConst;
    equationOfState rhoConst;
    specie          specie;
    energy          sensibleInternalEnergy;
}

Calculating face flux field phi.water
Selecting turbulence model type laminar
Selecting laminar stress model Stokes
Selecting thermophysical transport type laminar
Selecting default laminar thermophysical transport model unityLewisFourier
Selecting interfaceSurfaceTensionModel for steam_water: constant
Selecting heatTransferModel blending method for steam_water_inThe_steam: continuous
Selecting heatTransferModel for water_dispersedIn_steam_inThe_steam: RanzMarshall
Selecting heatTransferModel blending method for steam_water_inThe_water: continuous
Selecting heatTransferModel for water_dispersedIn_steam_inThe_water: spherical
Selecting saturationTemperatureModel constant
Courant Number mean: 0 max: 0

PIMPLE: No convergence criteria found


PIMPLE: No corrector convergence criteria found
        Calculations will do 5 corrections


PIMPLE: Operating solver in transient mode with 5 outer correctors



Starting time loop

Using dynamicCode for coded continuity at line 4 in "/home/as/openfoam/OpenFOAM-12/test/multiphaseEuler/thermal/waterEvaporation/system/functions/continuity"
Creating new library in "dynamicCode/continuity/platforms/linux64GccDPInt32Opt/lib/libcontinuity_c23f11799d2acac01880b1c44d24a164a9a86c72.so"
"/home/as/openfoam/OpenFOAM-12/etc/codeTemplates/dynamicCode/codedFunctionObjectTemplate.C" "/home/as/openfoam/OpenFOAM-12/test/multiphaseEuler/thermal/waterEvaporation/dynamicCode/continuity/codedFunctionObjectTemplate.C"
"/home/as/openfoam/OpenFOAM-12/etc/codeTemplates/dynamicCode/codedFunctionObjectTemplate.H" "/home/as/openfoam/OpenFOAM-12/test/multiphaseEuler/thermal/waterEvaporation/dynamicCode/continuity/codedFunctionObjectTemplate.H"
Invoking "wmake -s libso /home/as/openfoam/OpenFOAM-12/test/multiphaseEuler/thermal/waterEvaporation/dynamicCode/continuity"
wmake libso /home/as/openfoam/OpenFOAM-12/test/multiphaseEuler/thermal/waterEvaporation/dynamicCode/continuity
make[3]: Entering directory '/home/as/openfoam/OpenFOAM-12/test/multiphaseEuler/thermal/waterEvaporation/dynamicCode/continuity'
    ln: ./lnInclude
make[3]: Leaving directory '/home/as/openfoam/OpenFOAM-12/test/multiphaseEuler/thermal/waterEvaporation/dynamicCode/continuity'
make[3]: Entering directory '/home/as/openfoam/OpenFOAM-12/test/multiphaseEuler/thermal/waterEvaporation/dynamicCode/continuity'
    wmkdep: codedFunctionObjectTemplate.C
    Ctoo: codedFunctionObjectTemplate.C
    ld: /home/as/openfoam/OpenFOAM-12/test/multiphaseEuler/thermal/waterEvaporation/dynamicCode/continuity/../platforms/linux64GccDPInt32Opt/lib/libcontinuity_c23f11799d2acac01880b1c44d24a164a9a86c72.so
make[3]: Leaving directory '/home/as/openfoam/OpenFOAM-12/test/multiphaseEuler/thermal/waterEvaporation/dynamicCode/continuity'
Courant Number mean: 0 max: 0
Time = 0.005s

PIMPLE: Iteration 1
MULES: Solving for alpha.steam
MULES: Solving for alpha.water
steam fraction, min, max = 0.99 0.99 0.99
water fraction, min, max = 0.01 0.01 0.01
Phase-sum volume fraction, min, max = 1 1 1
MULES: Solving for alpha.steam
MULES: Solving for alpha.water
steam fraction, min, max = 0.99 0.99 0.99
water fraction, min, max = 0.01 0.01 0.01
Phase-sum volume fraction, min, max = 1 1 1
MULES: Solving for alpha.steam
MULES: Solving for alpha.water
steam fraction, min, max = 0.99 0.99 0.99
water fraction, min, max = 0.01 0.01 0.01
Phase-sum volume fraction, min, max = 1 1 1
Constructing momentum equations
thermalPhaseChange:Tsat.steam_water: min = 372.76, mean = 372.76, max = 372.76
thermalPhaseChange:Tf.steam_water: min = 372.76, mean = 372.76, max = 372.76
thermalPhaseChange:dmdtf.steam_water: min = 4.007814237, mean = 4.007814237, max = 4.007814237, integral = 4.007814237
diagonal:  Solving for e.steam, Initial residual = 0, Final residual = 0, No Iterations 0
diagonal:  Solving for e.water, Initial residual = 0, Final residual = 0, No Iterations 0
steam min/max T 383.1096863 - 383.1096863
water min/max T 379.0986263 - 379.0986263
diagonal:  Solving for p_rgh, Initial residual = 0, Final residual = 0, No Iterations 0
PIMPLE: Iteration 2
MULES: Solving for alpha.steam
MULES: Solving for alpha.water
steam fraction, min, max = 0.9900064999 0.9900064999 0.9900064999
water fraction, min, max = 0.009993500147 0.009993500147 0.009993500147
Phase-sum volume fraction, min, max = 1 1 1
MULES: Solving for alpha.steam
MULES: Solving for alpha.water
steam fraction, min, max = 0.9900129955 0.9900129955 0.9900129955
water fraction, min, max = 0.009987004519 0.009987004519 0.009987004519
Phase-sum volume fraction, min, max = 1 1 1
MULES: Solving for alpha.steam
MULES: Solving for alpha.water
steam fraction, min, max = 0.9900194869 0.9900194869 0.9900194869
water fraction, min, max = 0.009980513114 0.009980513114 0.009980513114
Phase-sum volume fraction, min, max = 1 1 1
Constructing momentum equations
thermalPhaseChange:Tsat.steam_water: min = 372.76, mean = 372.76, max = 372.76
thermalPhaseChange:Tf.steam_water: min = 372.76, mean = 372.76, max = 372.76
thermalPhaseChange:dmdtf.steam_water: min = 3.511486137, mean = 3.511486137, max = 3.511486137, integral = 3.511486137
diagonal:  Solving for e.steam, Initial residual = 0, Final residual = 0, No Iterations 0
diagonal:  Solving for e.water, Initial residual = 0, Final residual = 0, No Iterations 0
steam min/max T 382.7093613 - 382.7093613
water min/max T 379.0973665 - 379.0973665
diagonal:  Solving for p_rgh, Initial residual = 0, Final residual = 0, No Iterations 0
PIMPLE: Iteration 3
MULES: Solving for alpha.steam
MULES: Solving for alpha.water
steam fraction, min, max = 0.9900057065 0.9900057065 0.9900057065
water fraction, min, max = 0.009994293517 0.009994293517 0.009994293517
Phase-sum volume fraction, min, max = 1 1 1
MULES: Solving for alpha.steam
MULES: Solving for alpha.water
steam fraction, min, max = 0.9900114097 0.9900114097 0.9900114097
water fraction, min, max = 0.009988590291 0.009988590291 0.009988590291
Phase-sum volume fraction, min, max = 1 1 1
MULES: Solving for alpha.steam
MULES: Solving for alpha.water
steam fraction, min, max = 0.9900171097 0.9900171097 0.9900171097
water fraction, min, max = 0.00998289032 0.00998289032 0.00998289032
Phase-sum volume fraction, min, max = 1 1 1
Constructing momentum equations
thermalPhaseChange:Tsat.steam_water: min = 372.76, mean = 372.76, max = 372.76
thermalPhaseChange:Tf.steam_water: min = 372.76, mean = 372.76, max = 372.76
thermalPhaseChange:dmdtf.steam_water: min = 3.510682845, mean = 3.510682845, max = 3.510682845, integral = 3.510682845
diagonal:  Solving for e.steam, Initial residual = 0, Final residual = 0, No Iterations 0
diagonal:  Solving for e.water, Initial residual = 0, Final residual = 0, No Iterations 0
steam min/max T 382.708831 - 382.708831
water min/max T 379.0971672 - 379.0971672
diagonal:  Solving for p_rgh, Initial residual = 0, Final residual = 0, No Iterations 0
PIMPLE: Iteration 4
MULES: Solving for alpha.steam
MULES: Solving for alpha.water
steam fraction, min, max = 0.9900057038 0.9900057038 0.9900057038
water fraction, min, max = 0.00999429618 0.00999429618 0.00999429618
Phase-sum volume fraction, min, max = 1 1 1
MULES: Solving for alpha.steam
MULES: Solving for alpha.water
steam fraction, min, max = 0.9900114044 0.9900114044 0.9900114044
water fraction, min, max = 0.009988595613 0.009988595613 0.009988595613
Phase-sum volume fraction, min, max = 1 1 1
MULES: Solving for alpha.steam
MULES: Solving for alpha.water
steam fraction, min, max = 0.9900171017 0.9900171017 0.9900171017
water fraction, min, max = 0.009982898298 0.009982898298 0.009982898298
Phase-sum volume fraction, min, max = 1 1 1
Constructing momentum equations
thermalPhaseChange:Tsat.steam_water: min = 372.76, mean = 372.76, max = 372.76
thermalPhaseChange:Tf.steam_water: min = 372.76, mean = 372.76, max = 372.76
thermalPhaseChange:dmdtf.steam_water: min = 3.510574735, mean = 3.510574735, max = 3.510574735, integral = 3.510574735
diagonal:  Solving for e.steam, Initial residual = 0, Final residual = 0, No Iterations 0
diagonal:  Solving for e.water, Initial residual = 0, Final residual = 0, No Iterations 0
steam min/max T 382.7087426 - 382.7087426
water min/max T 379.097166 - 379.097166
diagonal:  Solving for p_rgh, Initial residual = 0, Final residual = 0, No Iterations 0
PIMPLE: Iteration 5
MULES: Solving for alpha.steam
MULES: Solving for alpha.water
steam fraction, min, max = 0.9900057036 0.9900057036 0.9900057036
water fraction, min, max = 0.00999429636 0.00999429636 0.00999429636
Phase-sum volume fraction, min, max = 1 1 1
MULES: Solving for alpha.steam
MULES: Solving for alpha.water
steam fraction, min, max = 0.990011404 0.990011404 0.990011404
water fraction, min, max = 0.009988595973 0.009988595973 0.009988595973
Phase-sum volume fraction, min, max = 1 1 1
MULES: Solving for alpha.steam
MULES: Solving for alpha.water
steam fraction, min, max = 0.9900171012 0.9900171012 0.9900171012
water fraction, min, max = 0.009982898838 0.009982898838 0.009982898838
Phase-sum volume fraction, min, max = 1 1 1
Constructing momentum equations
thermalPhaseChange:Tsat.steam_water: min = 372.76, mean = 372.76, max = 372.76
thermalPhaseChange:Tf.steam_water: min = 372.76, mean = 372.76, max = 372.76
thermalPhaseChange:dmdtf.steam_water: min = 3.510574038, mean = 3.510574038, max = 3.510574038, integral = 3.510574038
diagonal:  Solving for e.steam, Initial residual = 0, Final residual = 0, No Iterations 0
diagonal:  Solving for e.water, Initial residual = 0, Final residual = 0, No Iterations 0
steam min/max T 382.7087421 - 382.7087421
water min/max T 379.0971659 - 379.0971659
diagonal:  Solving for p_rgh, Initial residual = 0, Final residual = 0, No Iterations 0
ExecutionTime = 0.225122 s  ClockTime = 19 s

Courant Number mean: 0 max: 0
Time = 0.01s

PIMPLE: Iteration 1
MULES: Solving for alpha.steam
MULES: Solving for alpha.water
steam fraction, min, max = 0.990022795 0.990022795 0.990022795
water fraction, min, max = 0.009977204953 0.009977204953 0.009977204953
Phase-sum volume fraction, min, max = 1 1 1
MULES: Solving for alpha.steam
MULES: Solving for alpha.water
steam fraction, min, max = 0.9900284857 0.9900284857 0.9900284857
water fraction, min, max = 0.009971514316 0.009971514316 0.009971514316
Phase-sum volume fraction, min, max = 1 1 1
MULES: Solving for alpha.steam
MULES: Solving for alpha.water
steam fraction, min, max = 0.9900341731 0.9900341731 0.9900341731
water fraction, min, max = 0.009965826925 0.009965826925 0.009965826925
Phase-sum volume fraction, min, max = 1 1 1
Constructing momentum equations
thermalPhaseChange:Tsat.steam_water: min = 372.76, mean = 372.76, max = 372.76
thermalPhaseChange:Tf.steam_water: min = 372.76, mean = 372.76, max = 372.76
thermalPhaseChange:dmdtf.steam_water: min = 3.504570523, mean = 3.504570523, max = 3.504570523, integral = 3.504570523
diagonal:  Solving for e.steam, Initial residual = 0, Final residual = 0, No Iterations 0
diagonal:  Solving for e.water, Initial residual = 0, Final residual = 0, No Iterations 0
steam min/max T 382.0757983 - 382.0757983
water min/max T 378.3080915 - 378.3080915
diagonal:  Solving for p_rgh, Initial residual = 0, Final residual = 0, No Iterations 0
PIMPLE: Iteration 2
MULES: Solving for alpha.steam
MULES: Solving for alpha.water
steam fraction, min, max = 0.990022795 0.990022795 0.990022795
water fraction, min, max = 0.009977204953 0.009977204953 0.009977204953
Phase-sum volume fraction, min, max = 1 1 1
MULES: Solving for alpha.steam
MULES: Solving for alpha.water
steam fraction, min, max = 0.9900284857 0.9900284857 0.9900284857
water fraction, min, max = 0.009971514316 0.009971514316 0.009971514316
Phase-sum volume fraction, min, max = 1 1 1
MULES: Solving for alpha.steam
MULES: Solving for alpha.water
steam fraction, min, max = 0.9900341731 0.9900341731 0.9900341731
water fraction, min, max = 0.009965826925 0.009965826925 0.009965826925
Phase-sum volume fraction, min, max = 1 1 1
Constructing momentum equations
thermalPhaseChange:Tsat.steam_water: min = 372.76, mean = 372.76, max = 372.76
thermalPhaseChange:Tf.steam_water: min = 372.76, mean = 372.76, max = 372.76
thermalPhaseChange:dmdtf.steam_water: min = 3.069630189, mean = 3.069630189, max = 3.069630189, integral = 3.069630189
diagonal:  Solving for e.steam, Initial residual = 0, Final residual = 0, No Iterations 0
diagonal:  Solving for e.water, Initial residual = 0, Final residual = 0, No Iterations 0
steam min/max T 384.8531894 - 384.8531894
water min/max T 378.3058982 - 378.3058982
diagonal:  Solving for p_rgh, Initial residual = 0, Final residual = 0, No Iterations 0
PIMPLE: Iteration 3
MULES: Solving for alpha.steam
MULES: Solving for alpha.water
steam fraction, min, max = 0.9900220888 0.9900220888 0.9900220888
water fraction, min, max = 0.009977911249 0.009977911249 0.009977911249
Phase-sum volume fraction, min, max = 1 1 1
MULES: Solving for alpha.steam
MULES: Solving for alpha.water
steam fraction, min, max = 0.9900270738 0.9900270738 0.9900270738
water fraction, min, max = 0.009972926151 0.009972926151 0.009972926151
Phase-sum volume fraction, min, max = 1 1 1
MULES: Solving for alpha.steam
MULES: Solving for alpha.water
steam fraction, min, max = 0.9900320565 0.9900320565 0.9900320565
water fraction, min, max = 0.009967943545 0.009967943545 0.009967943545
Phase-sum volume fraction, min, max = 1 1 1
Constructing momentum equations
thermalPhaseChange:Tsat.steam_water: min = 372.76, mean = 372.76, max = 372.76
thermalPhaseChange:Tf.steam_water: min = 372.76, mean = 372.76, max = 372.76
thermalPhaseChange:dmdtf.steam_water: min = 3.075628243, mean = 3.075628243, max = 3.075628243, integral = 3.075628243
diagonal:  Solving for e.steam, Initial residual = 0, Final residual = 0, No Iterations 0
diagonal:  Solving for e.water, Initial residual = 0, Final residual = 0, No Iterations 0
steam min/max T 384.8579513 - 384.8579513
water min/max T 378.3057564 - 378.3057564
diagonal:  Solving for p_rgh, Initial residual = 0, Final residual = 0, No Iterations 0
PIMPLE: Iteration 4
MULES: Solving for alpha.steam
MULES: Solving for alpha.water
steam fraction, min, max = 0.9900220974 0.9900220974 0.9900220974
water fraction, min, max = 0.009977902568 0.009977902568 0.009977902568
Phase-sum volume fraction, min, max = 1 1 1
MULES: Solving for alpha.steam
MULES: Solving for alpha.water
steam fraction, min, max = 0.9900270912 0.9900270912 0.9900270912
water fraction, min, max = 0.0099729088 0.0099729088 0.0099729088
Phase-sum volume fraction, min, max = 1 1 1
MULES: Solving for alpha.steam
MULES: Solving for alpha.water
steam fraction, min, max = 0.9900320825 0.9900320825 0.9900320825
water fraction, min, max = 0.00996791753 0.00996791753 0.00996791753
Phase-sum volume fraction, min, max = 1 1 1
Constructing momentum equations
thermalPhaseChange:Tsat.steam_water: min = 372.76, mean = 372.76, max = 372.76
thermalPhaseChange:Tf.steam_water: min = 372.76, mean = 372.76, max = 372.76
thermalPhaseChange:dmdtf.steam_water: min = 3.075553541, mean = 3.075553541, max = 3.075553541, integral = 3.075553541
diagonal:  Solving for e.steam, Initial residual = 0, Final residual = 0, No Iterations 0
diagonal:  Solving for e.water, Initial residual = 0, Final residual = 0, No Iterations 0
steam min/max T 384.8578922 - 384.8578922
water min/max T 378.305758 - 378.305758
diagonal:  Solving for p_rgh, Initial residual = 0, Final residual = 0, No Iterations 0
PIMPLE: Iteration 5
MULES: Solving for alpha.steam
MULES: Solving for alpha.water
steam fraction, min, max = 0.9900220973 0.9900220973 0.9900220973
water fraction, min, max = 0.009977902677 0.009977902677 0.009977902677
Phase-sum volume fraction, min, max = 1 1 1
MULES: Solving for alpha.steam
MULES: Solving for alpha.water
steam fraction, min, max = 0.990027091 0.990027091 0.990027091
water fraction, min, max = 0.009972909016 0.009972909016 0.009972909016
Phase-sum volume fraction, min, max = 1 1 1
MULES: Solving for alpha.steam
MULES: Solving for alpha.water
steam fraction, min, max = 0.9900320821 0.9900320821 0.9900320821
water fraction, min, max = 0.009967917855 0.009967917855 0.009967917855
Phase-sum volume fraction, min, max = 1 1 1
Constructing momentum equations
thermalPhaseChange:Tsat.steam_water: min = 372.76, mean = 372.76, max = 372.76
thermalPhaseChange:Tf.steam_water: min = 372.76, mean = 372.76, max = 372.76
thermalPhaseChange:dmdtf.steam_water: min = 3.075554341, mean = 3.075554341, max = 3.075554341, integral = 3.075554341
diagonal:  Solving for e.steam, Initial residual = 0, Final residual = 0, No Iterations 0
diagonal:  Solving for e.water, Initial residual = 0, Final residual = 0, No Iterations 0
steam min/max T 384.8578929 - 384.8578929
water min/max T 378.3057579 - 378.3057579
diagonal:  Solving for p_rgh, Initial residual = 0, Final residual = 0, No Iterations 0
ExecutionTime = 0.238891 s  ClockTime = 19 s

Courant Number mean: 0 max: 0
Time = 0.015s

PIMPLE: Iteration 1
MULES: Solving for alpha.steam
MULES: Solving for alpha.water
steam fraction, min, max = 0.9900370708 0.9900370708 0.9900370708
water fraction, min, max = 0.00996292919 0.00996292919 0.00996292919
Phase-sum volume fraction, min, max = 1 1 1
MULES: Solving for alpha.steam
MULES: Solving for alpha.water
steam fraction, min, max = 0.990042057 0.990042057 0.990042057
water fraction, min, max = 0.009957943022 0.009957943022 0.009957943022
Phase-sum volume fraction, min, max = 1 1 1
MULES: Solving for alpha.steam
MULES: Solving for alpha.water
steam fraction, min, max = 0.9900470407 0.9900470407 0.9900470407
water fraction, min, max = 0.00995295935 0.00995295935 0.00995295935
Phase-sum volume fraction, min, max = 1 1 1
Constructing momentum equations
thermalPhaseChange:Tsat.steam_water: min = 372.76, mean = 372.76, max = 372.76
thermalPhaseChange:Tf.steam_water: min = 372.76, mean = 372.76, max = 372.76
thermalPhaseChange:dmdtf.steam_water: min = 3.070938955, mean = 3.070938955, max = 3.070938955, integral = 3.070938955
diagonal:  Solving for e.steam, Initial residual = 0, Final residual = 0, No Iterations 0
diagonal:  Solving for e.water, Initial residual = 0, Final residual = 0, No Iterations 0
steam min/max T 384.1597749 - 384.1597749
water min/max T 377.6140879 - 377.6140879
diagonal:  Solving for p_rgh, Initial residual = 0, Final residual = 0, No Iterations 0
PIMPLE: Iteration 2
MULES: Solving for alpha.steam
MULES: Solving for alpha.water
steam fraction, min, max = 0.9900370708 0.9900370708 0.9900370708
water fraction, min, max = 0.00996292919 0.00996292919 0.00996292919
Phase-sum volume fraction, min, max = 1 1 1
MULES: Solving for alpha.steam
MULES: Solving for alpha.water
steam fraction, min, max = 0.990042057 0.990042057 0.990042057
water fraction, min, max = 0.009957943022 0.009957943022 0.009957943022
Phase-sum volume fraction, min, max = 1 1 1
MULES: Solving for alpha.steam
MULES: Solving for alpha.water
steam fraction, min, max = 0.9900470407 0.9900470407 0.9900470407
water fraction, min, max = 0.00995295935 0.00995295935 0.00995295935
Phase-sum volume fraction, min, max = 1 1 1
Constructing momentum equations
thermalPhaseChange:Tsat.steam_water: min = 372.76, mean = 372.76, max = 372.76
thermalPhaseChange:Tf.steam_water: min = 372.76, mean = 372.76, max = 372.76
thermalPhaseChange:dmdtf.steam_water: min = 2.689841969, mean = 2.689841969, max = 2.689841969, integral = 2.689841969
diagonal:  Solving for e.steam, Initial residual = 0, Final residual = 0, No Iterations 0
diagonal:  Solving for e.water, Initial residual = 0, Final residual = 0, No Iterations 0
steam min/max T 386.5621336 - 386.5621336
water min/max T 377.6124028 - 377.6124028
diagonal:  Solving for p_rgh, Initial residual = 0, Final residual = 0, No Iterations 0
PIMPLE: Iteration 3
MULES: Solving for alpha.steam
MULES: Solving for alpha.water
steam fraction, min, max = 0.990036452 0.990036452 0.990036452
water fraction, min, max = 0.009963548001 0.009963548001 0.009963548001
Phase-sum volume fraction, min, max = 1 1 1
MULES: Solving for alpha.steam
MULES: Solving for alpha.water
steam fraction, min, max = 0.9900408199 0.9900408199 0.9900408199
water fraction, min, max = 0.009959180064 0.009959180064 0.009959180064
Phase-sum volume fraction, min, max = 1 1 1
MULES: Solving for alpha.steam
MULES: Solving for alpha.water
steam fraction, min, max = 0.990045186 0.990045186 0.990045186
water fraction, min, max = 0.009954814041 0.009954814041 0.009954814041
Phase-sum volume fraction, min, max = 1 1 1
Constructing momentum equations
thermalPhaseChange:Tsat.steam_water: min = 372.76, mean = 372.76, max = 372.76
thermalPhaseChange:Tf.steam_water: min = 372.76, mean = 372.76, max = 372.76
thermalPhaseChange:dmdtf.steam_water: min = 2.695077689, mean = 2.695077689, max = 2.695077689, integral = 2.695077689
diagonal:  Solving for e.steam, Initial residual = 0, Final residual = 0, No Iterations 0
diagonal:  Solving for e.water, Initial residual = 0, Final residual = 0, No Iterations 0
steam min/max T 386.5661278 - 386.5661278
water min/max T 377.6122936 - 377.6122936
diagonal:  Solving for p_rgh, Initial residual = 0, Final residual = 0, No Iterations 0
PIMPLE: Iteration 4
MULES: Solving for alpha.steam
MULES: Solving for alpha.water
steam fraction, min, max = 0.9900364597 0.9900364597 0.9900364597
water fraction, min, max = 0.009963540315 0.009963540315 0.009963540315
Phase-sum volume fraction, min, max = 1 1 1
MULES: Solving for alpha.steam
MULES: Solving for alpha.water
steam fraction, min, max = 0.9900408353 0.9900408353 0.9900408353
water fraction, min, max = 0.009959164697 0.009959164697 0.009959164697
Phase-sum volume fraction, min, max = 1 1 1
MULES: Solving for alpha.steam
MULES: Solving for alpha.water
steam fraction, min, max = 0.990045209 0.990045209 0.990045209
water fraction, min, max = 0.009954791001 0.009954791001 0.009954791001
Phase-sum volume fraction, min, max = 1 1 1
Constructing momentum equations
thermalPhaseChange:Tsat.steam_water: min = 372.76, mean = 372.76, max = 372.76
thermalPhaseChange:Tf.steam_water: min = 372.76, mean = 372.76, max = 372.76
thermalPhaseChange:dmdtf.steam_water: min = 2.695020902, mean = 2.695020902, max = 2.695020902, integral = 2.695020902
diagonal:  Solving for e.steam, Initial residual = 0, Final residual = 0, No Iterations 0
diagonal:  Solving for e.water, Initial residual = 0, Final residual = 0, No Iterations 0
steam min/max T 386.5660845 - 386.5660845
water min/max T 377.6122948 - 377.6122948
diagonal:  Solving for p_rgh, Initial residual = 0, Final residual = 0, No Iterations 0
PIMPLE: Iteration 5
MULES: Solving for alpha.steam
MULES: Solving for alpha.water
steam fraction, min, max = 0.9900364596 0.9900364596 0.9900364596
water fraction, min, max = 0.009963540397 0.009963540397 0.009963540397
Phase-sum volume fraction, min, max = 1 1 1
MULES: Solving for alpha.steam
MULES: Solving for alpha.water
steam fraction, min, max = 0.9900408351 0.9900408351 0.9900408351
water fraction, min, max = 0.009959164861 0.009959164861 0.009959164861
Phase-sum volume fraction, min, max = 1 1 1
MULES: Solving for alpha.steam
MULES: Solving for alpha.water
steam fraction, min, max = 0.9900452088 0.9900452088 0.9900452088
water fraction, min, max = 0.009954791247 0.009954791247 0.009954791247
Phase-sum volume fraction, min, max = 1 1 1
Constructing momentum equations
thermalPhaseChange:Tsat.steam_water: min = 372.76, mean = 372.76, max = 372.76
thermalPhaseChange:Tf.steam_water: min = 372.76, mean = 372.76, max = 372.76
thermalPhaseChange:dmdtf.steam_water: min = 2.695021542, mean = 2.695021542, max = 2.695021542, integral = 2.695021542
diagonal:  Solving for e.steam, Initial residual = 0, Final residual = 0, No Iterations 0
diagonal:  Solving for e.water, Initial residual = 0, Final residual = 0, No Iterations 0
steam min/max T 386.566085 - 386.566085
water min/max T 377.6122948 - 377.6122948
diagonal:  Solving for p_rgh, Initial residual = 0, Final residual = 0, No Iterations 0
ExecutionTime = 0.252395 s  ClockTime = 19 s

Courant Number mean: 0 max: 0
Time = 0.02s

PIMPLE: Iteration 1
MULES: Solving for alpha.steam
MULES: Solving for alpha.water
steam fraction, min, max = 0.9900495804 0.9900495804 0.9900495804
water fraction, min, max = 0.009950419553 0.009950419553 0.009950419553
Phase-sum volume fraction, min, max = 1 1 1
MULES: Solving for alpha.steam
MULES: Solving for alpha.water
steam fraction, min, max = 0.9900539502 0.9900539502 0.9900539502
water fraction, min, max = 0.009946049778 0.009946049778 0.009946049778
Phase-sum volume fraction, min, max = 1 1 1
MULES: Solving for alpha.steam
MULES: Solving for alpha.water
steam fraction, min, max = 0.9900583181 0.9900583181 0.9900583181
water fraction, min, max = 0.009941681923 0.009941681923 0.009941681923
Phase-sum volume fraction, min, max = 1 1 1
Constructing momentum equations
thermalPhaseChange:Tsat.steam_water: min = 372.76, mean = 372.76, max = 372.76
thermalPhaseChange:Tf.steam_water: min = 372.76, mean = 372.76, max = 372.76
thermalPhaseChange:dmdtf.steam_water: min = 2.6914725, mean = 2.6914725, max = 2.6914725, integral = 2.6914725
diagonal:  Solving for e.steam, Initial residual = 0, Final residual = 0, No Iterations 0
diagonal:  Solving for e.water, Initial residual = 0, Final residual = 0, No Iterations 0
steam min/max T 385.8376231 - 385.8376231
water min/max T 377.00624 - 377.00624
diagonal:  Solving for p_rgh, Initial residual = 0, Final residual = 0, No Iterations 0
PIMPLE: Iteration 2
MULES: Solving for alpha.steam
MULES: Solving for alpha.water
steam fraction, min, max = 0.9900495804 0.9900495804 0.9900495804
water fraction, min, max = 0.009950419553 0.009950419553 0.009950419553
Phase-sum volume fraction, min, max = 1 1 1
MULES: Solving for alpha.steam
MULES: Solving for alpha.water
steam fraction, min, max = 0.9900539502 0.9900539502 0.9900539502
water fraction, min, max = 0.009946049778 0.009946049778 0.009946049778
Phase-sum volume fraction, min, max = 1 1 1
MULES: Solving for alpha.steam
MULES: Solving for alpha.water
steam fraction, min, max = 0.9900583181 0.9900583181 0.9900583181
water fraction, min, max = 0.009941681923 0.009941681923 0.009941681923
Phase-sum volume fraction, min, max = 1 1 1
Constructing momentum equations
thermalPhaseChange:Tsat.steam_water: min = 372.76, mean = 372.76, max = 372.76
thermalPhaseChange:Tf.steam_water: min = 372.76, mean = 372.76, max = 372.76
thermalPhaseChange:dmdtf.steam_water: min = 2.357650859, mean = 2.357650859, max = 2.357650859, integral = 2.357650859
diagonal:  Solving for e.steam, Initial residual = 0, Final residual = 0, No Iterations 0
diagonal:  Solving for e.water, Initial residual = 0, Final residual = 0, No Iterations 0
steam min/max T 387.9186482 - 387.9186482
water min/max T 377.0049462 - 377.0049462
diagonal:  Solving for p_rgh, Initial residual = 0, Final residual = 0, No Iterations 0
PIMPLE: Iteration 3
MULES: Solving for alpha.steam
MULES: Solving for alpha.water
steam fraction, min, max = 0.9900490384 0.9900490384 0.9900490384
water fraction, min, max = 0.009950961563 0.009950961563 0.009950961563
Phase-sum volume fraction, min, max = 1 1 1
MULES: Solving for alpha.steam
MULES: Solving for alpha.water
steam fraction, min, max = 0.9900528666 0.9900528666 0.9900528666
water fraction, min, max = 0.009947133352 0.009947133352 0.009947133352
Phase-sum volume fraction, min, max = 1 1 1
MULES: Solving for alpha.steam
MULES: Solving for alpha.water
steam fraction, min, max = 0.9900566934 0.9900566934 0.9900566934
water fraction, min, max = 0.009943306613 0.009943306613 0.009943306613
Phase-sum volume fraction, min, max = 1 1 1
Constructing momentum equations
thermalPhaseChange:Tsat.steam_water: min = 372.76, mean = 372.76, max = 372.76
thermalPhaseChange:Tf.steam_water: min = 372.76, mean = 372.76, max = 372.76
thermalPhaseChange:dmdtf.steam_water: min = 2.362223465, mean = 2.362223465, max = 2.362223465, integral = 2.362223465
diagonal:  Solving for e.steam, Initial residual = 0, Final residual = 0, No Iterations 0
diagonal:  Solving for e.water, Initial residual = 0, Final residual = 0, No Iterations 0
steam min/max T 387.9220226 - 387.9220226
water min/max T 377.0048619 - 377.0048619
diagonal:  Solving for p_rgh, Initial residual = 0, Final residual = 0, No Iterations 0
PIMPLE: Iteration 4
MULES: Solving for alpha.steam
MULES: Solving for alpha.water
steam fraction, min, max = 0.9900490452 0.9900490452 0.9900490452
water fraction, min, max = 0.009950954765 0.009950954765 0.009950954765
Phase-sum volume fraction, min, max = 1 1 1
MULES: Solving for alpha.steam
MULES: Solving for alpha.water
steam fraction, min, max = 0.9900528802 0.9900528802 0.9900528802
water fraction, min, max = 0.009947119761 0.009947119761 0.009947119761
Phase-sum volume fraction, min, max = 1 1 1
MULES: Solving for alpha.steam
MULES: Solving for alpha.water
steam fraction, min, max = 0.9900567138 0.9900567138 0.9900567138
water fraction, min, max = 0.009943286235 0.009943286235 0.009943286235
Phase-sum volume fraction, min, max = 1 1 1
Constructing momentum equations
thermalPhaseChange:Tsat.steam_water: min = 372.76, mean = 372.76, max = 372.76
thermalPhaseChange:Tf.steam_water: min = 372.76, mean = 372.76, max = 372.76
thermalPhaseChange:dmdtf.steam_water: min = 2.362180394, mean = 2.362180394, max = 2.362180394, integral = 2.362180394
diagonal:  Solving for e.steam, Initial residual = 0, Final residual = 0, No Iterations 0
diagonal:  Solving for e.water, Initial residual = 0, Final residual = 0, No Iterations 0
steam min/max T 387.9219906 - 387.9219906
water min/max T 377.0048629 - 377.0048629
diagonal:  Solving for p_rgh, Initial residual = 0, Final residual = 0, No Iterations 0
PIMPLE: Iteration 5
MULES: Solving for alpha.steam
MULES: Solving for alpha.water
steam fraction, min, max = 0.9900490452 0.9900490452 0.9900490452
water fraction, min, max = 0.009950954827 0.009950954827 0.009950954827
Phase-sum volume fraction, min, max = 1 1 1
MULES: Solving for alpha.steam
MULES: Solving for alpha.water
steam fraction, min, max = 0.9900528801 0.9900528801 0.9900528801
water fraction, min, max = 0.009947119885 0.009947119885 0.009947119885
Phase-sum volume fraction, min, max = 1 1 1
MULES: Solving for alpha.steam
MULES: Solving for alpha.water
steam fraction, min, max = 0.9900567136 0.9900567136 0.9900567136
water fraction, min, max = 0.009943286421 0.009943286421 0.009943286421
Phase-sum volume fraction, min, max = 1 1 1
Constructing momentum equations
thermalPhaseChange:Tsat.steam_water: min = 372.76, mean = 372.76, max = 372.76
thermalPhaseChange:Tf.steam_water: min = 372.76, mean = 372.76, max = 372.76
thermalPhaseChange:dmdtf.steam_water: min = 2.362180904, mean = 2.362180904, max = 2.362180904, integral = 2.362180904
diagonal:  Solving for e.steam, Initial residual = 0, Final residual = 0, No Iterations 0
diagonal:  Solving for e.water, Initial residual = 0, Final residual = 0, No Iterations 0
steam min/max T 387.921991 - 387.921991
water min/max T 377.0048629 - 377.0048629
diagonal:  Solving for p_rgh, Initial residual = 0, Final residual = 0, No Iterations 0
ExecutionTime = 0.266636 s  ClockTime = 19 s

Courant Number mean: 0 max: 0
Time = 0.025s

PIMPLE: Iteration 1
MULES: Solving for alpha.steam
MULES: Solving for alpha.water
steam fraction, min, max = 0.9900605456 0.9900605456 0.9900605456
water fraction, min, max = 0.009939454434 0.009939454434 0.009939454434
Phase-sum volume fraction, min, max = 1 1 1
MULES: Solving for alpha.steam
MULES: Solving for alpha.water
steam fraction, min, max = 0.9900643761 0.9900643761 0.9900643761
water fraction, min, max = 0.009935623923 0.009935623923 0.009935623923
Phase-sum volume fraction, min, max = 1 1 1
MULES: Solving for alpha.steam
MULES: Solving for alpha.water
steam fraction, min, max = 0.9900682051 0.9900682051 0.9900682051
water fraction, min, max = 0.009931794889 0.009931794889 0.009931794889
Phase-sum volume fraction, min, max = 1 1 1
Constructing momentum equations
thermalPhaseChange:Tsat.steam_water: min = 372.76, mean = 372.76, max = 372.76
thermalPhaseChange:Tf.steam_water: min = 372.76, mean = 372.76, max = 372.76
thermalPhaseChange:dmdtf.steam_water: min = 2.359450909, mean = 2.359450909, max = 2.359450909, integral = 2.359450909
diagonal:  Solving for e.steam, Initial residual = 0, Final residual = 0, No Iterations 0
diagonal:  Solving for e.water, Initial residual = 0, Final residual = 0, No Iterations 0
steam min/max T 387.1851428 - 387.1851428
water min/max T 376.4740063 - 376.4740063
diagonal:  Solving for p_rgh, Initial residual = 0, Final residual = 0, No Iterations 0
PIMPLE: Iteration 2
MULES: Solving for alpha.steam
MULES: Solving for alpha.water
steam fraction, min, max = 0.9900605456 0.9900605456 0.9900605456
water fraction, min, max = 0.009939454434 0.009939454434 0.009939454434
Phase-sum volume fraction, min, max = 1 1 1
MULES: Solving for alpha.steam
MULES: Solving for alpha.water
steam fraction, min, max = 0.9900643761 0.9900643761 0.9900643761
water fraction, min, max = 0.009935623923 0.009935623923 0.009935623923
Phase-sum volume fraction, min, max = 1 1 1
MULES: Solving for alpha.steam
MULES: Solving for alpha.water
steam fraction, min, max = 0.9900682051 0.9900682051 0.9900682051
water fraction, min, max = 0.009931794889 0.009931794889 0.009931794889
Phase-sum volume fraction, min, max = 1 1 1
Constructing momentum equations
thermalPhaseChange:Tsat.steam_water: min = 372.76, mean = 372.76, max = 372.76
thermalPhaseChange:Tf.steam_water: min = 372.76, mean = 372.76, max = 372.76
thermalPhaseChange:dmdtf.steam_water: min = 2.067107354, mean = 2.067107354, max = 2.067107354, integral = 2.067107354
diagonal:  Solving for e.steam, Initial residual = 0, Final residual = 0, No Iterations 0
diagonal:  Solving for e.water, Initial residual = 0, Final residual = 0, No Iterations 0
steam min/max T 388.9903667 - 388.9903667
water min/max T 376.4730133 - 376.4730133
diagonal:  Solving for p_rgh, Initial residual = 0, Final residual = 0, No Iterations 0
PIMPLE: Iteration 3
MULES: Solving for alpha.steam
MULES: Solving for alpha.water
steam fraction, min, max = 0.9900600709 0.9900600709 0.9900600709
water fraction, min, max = 0.009939929069 0.009939929069 0.009939929069
Phase-sum volume fraction, min, max = 1 1 1
MULES: Solving for alpha.steam
MULES: Solving for alpha.water
steam fraction, min, max = 0.9900634271 0.9900634271 0.9900634271
water fraction, min, max = 0.009936572851 0.009936572851 0.009936572851
Phase-sum volume fraction, min, max = 1 1 1
MULES: Solving for alpha.steam
MULES: Solving for alpha.water
steam fraction, min, max = 0.9900667822 0.9900667822 0.9900667822
water fraction, min, max = 0.009933217765 0.009933217765 0.009933217765
Phase-sum volume fraction, min, max = 1 1 1
Constructing momentum equations
thermalPhaseChange:Tsat.steam_water: min = 372.76, mean = 372.76, max = 372.76
thermalPhaseChange:Tf.steam_water: min = 372.76, mean = 372.76, max = 372.76
thermalPhaseChange:dmdtf.steam_water: min = 2.071102967, mean = 2.071102967, max = 2.071102967, integral = 2.071102967
diagonal:  Solving for e.steam, Initial residual = 0, Final residual = 0, No Iterations 0
diagonal:  Solving for e.water, Initial residual = 0, Final residual = 0, No Iterations 0
steam min/max T 388.9932349 - 388.9932349
water min/max T 376.4729484 - 376.4729484
diagonal:  Solving for p_rgh, Initial residual = 0, Final residual = 0, No Iterations 0
PIMPLE: Iteration 4
MULES: Solving for alpha.steam
MULES: Solving for alpha.water
steam fraction, min, max = 0.9900600769 0.9900600769 0.9900600769
water fraction, min, max = 0.009939923063 0.009939923063 0.009939923063
Phase-sum volume fraction, min, max = 1 1 1
MULES: Solving for alpha.steam
MULES: Solving for alpha.water
steam fraction, min, max = 0.9900634392 0.9900634392 0.9900634392
water fraction, min, max = 0.009936560843 0.009936560843 0.009936560843
Phase-sum volume fraction, min, max = 1 1 1
MULES: Solving for alpha.steam
MULES: Solving for alpha.water
steam fraction, min, max = 0.9900668002 0.9900668002 0.9900668002
water fraction, min, max = 0.009933199761 0.009933199761 0.009933199761
Phase-sum volume fraction, min, max = 1 1 1
Constructing momentum equations
thermalPhaseChange:Tsat.steam_water: min = 372.76, mean = 372.76, max = 372.76
thermalPhaseChange:Tf.steam_water: min = 372.76, mean = 372.76, max = 372.76
thermalPhaseChange:dmdtf.steam_water: min = 2.071070379, mean = 2.071070379, max = 2.071070379, integral = 2.071070379
diagonal:  Solving for e.steam, Initial residual = 0, Final residual = 0, No Iterations 0
diagonal:  Solving for e.water, Initial residual = 0, Final residual = 0, No Iterations 0
steam min/max T 388.9932112 - 388.9932112
water min/max T 376.4729491 - 376.4729491
diagonal:  Solving for p_rgh, Initial residual = 0, Final residual = 0, No Iterations 0
PIMPLE: Iteration 5
MULES: Solving for alpha.steam
MULES: Solving for alpha.water
steam fraction, min, max = 0.9900600769 0.9900600769 0.9900600769
water fraction, min, max = 0.00993992311 0.00993992311 0.00993992311
Phase-sum volume fraction, min, max = 1 1 1
MULES: Solving for alpha.steam
MULES: Solving for alpha.water
steam fraction, min, max = 0.9900634391 0.9900634391 0.9900634391
water fraction, min, max = 0.009936560937 0.009936560937 0.009936560937
Phase-sum volume fraction, min, max = 1 1 1
MULES: Solving for alpha.steam
MULES: Solving for alpha.water
steam fraction, min, max = 0.9900668001 0.9900668001 0.9900668001
water fraction, min, max = 0.009933199901 0.009933199901 0.009933199901
Phase-sum volume fraction, min, max = 1 1 1
Constructing momentum equations
thermalPhaseChange:Tsat.steam_water: min = 372.76, mean = 372.76, max = 372.76
thermalPhaseChange:Tf.steam_water: min = 372.76, mean = 372.76, max = 372.76
thermalPhaseChange:dmdtf.steam_water: min = 2.071070783, mean = 2.071070783, max = 2.071070783, integral = 2.071070783
diagonal:  Solving for e.steam, Initial residual = 0, Final residual = 0, No Iterations 0
diagonal:  Solving for e.water, Initial residual = 0, Final residual = 0, No Iterations 0
steam min/max T 388.9932115 - 388.9932115
water min/max T 376.4729491 - 376.4729491
diagonal:  Solving for p_rgh, Initial residual = 0, Final residual = 0, No Iterations 0
ExecutionTime = 0.281226 s  ClockTime = 19 s

Courant Number mean: 0 max: 0
Time = 0.03s

PIMPLE: Iteration 1
MULES: Solving for alpha.steam
MULES: Solving for alpha.water
steam fraction, min, max = 0.99007016 0.99007016 0.99007016
water fraction, min, max = 0.009929840001 0.009929840001 0.009929840001
Phase-sum volume fraction, min, max = 1 1 1
MULES: Solving for alpha.steam
MULES: Solving for alpha.water
steam fraction, min, max = 0.9900735188 0.9900735188 0.9900735188
water fraction, min, max = 0.009926481238 0.009926481238 0.009926481238
Phase-sum volume fraction, min, max = 1 1 1
MULES: Solving for alpha.steam
MULES: Solving for alpha.water
steam fraction, min, max = 0.9900768764 0.9900768764 0.9900768764
water fraction, min, max = 0.009923123611 0.009923123611 0.009923123611
Phase-sum volume fraction, min, max = 1 1 1
Constructing momentum equations
thermalPhaseChange:Tsat.steam_water: min = 372.76, mean = 372.76, max = 372.76
thermalPhaseChange:Tf.steam_water: min = 372.76, mean = 372.76, max = 372.76
thermalPhaseChange:dmdtf.steam_water: min = 2.068969876, mean = 2.068969876, max = 2.068969876, integral = 2.068969876
diagonal:  Solving for e.steam, Initial residual = 0, Final residual = 0, No Iterations 0
diagonal:  Solving for e.water, Initial residual = 0, Final residual = 0, No Iterations 0
steam min/max T 388.2616469 - 388.2616469
water min/max T 376.0080988 - 376.0080988
diagonal:  Solving for p_rgh, Initial residual = 0, Final residual = 0, No Iterations 0
PIMPLE: Iteration 2
MULES: Solving for alpha.steam
MULES: Solving for alpha.water
steam fraction, min, max = 0.99007016 0.99007016 0.99007016
water fraction, min, max = 0.009929840001 0.009929840001 0.009929840001
Phase-sum volume fraction, min, max = 1 1 1
MULES: Solving for alpha.steam
MULES: Solving for alpha.water
steam fraction, min, max = 0.9900735188 0.9900735188 0.9900735188
water fraction, min, max = 0.009926481238 0.009926481238 0.009926481238
Phase-sum volume fraction, min, max = 1 1 1
MULES: Solving for alpha.steam
MULES: Solving for alpha.water
steam fraction, min, max = 0.9900768764 0.9900768764 0.9900768764
water fraction, min, max = 0.009923123611 0.009923123611 0.009923123611
Phase-sum volume fraction, min, max = 1 1 1
Constructing momentum equations
thermalPhaseChange:Tsat.steam_water: min = 372.76, mean = 372.76, max = 372.76
thermalPhaseChange:Tf.steam_water: min = 372.76, mean = 372.76, max = 372.76
thermalPhaseChange:dmdtf.steam_water: min = 1.812996412, mean = 1.812996412, max = 1.812996412, integral = 1.812996412
diagonal:  Solving for e.steam, Initial residual = 0, Final residual = 0, No Iterations 0
diagonal:  Solving for e.water, Initial residual = 0, Final residual = 0, No Iterations 0
steam min/max T 389.8297407 - 389.8297407
water min/max T 376.0073369 - 376.0073369
diagonal:  Solving for p_rgh, Initial residual = 0, Final residual = 0, No Iterations 0
PIMPLE: Iteration 3
MULES: Solving for alpha.steam
MULES: Solving for alpha.water
steam fraction, min, max = 0.9900697444 0.9900697444 0.9900697444
water fraction, min, max = 0.009930255566 0.009930255566 0.009930255566
Phase-sum volume fraction, min, max = 1 1 1
MULES: Solving for alpha.steam
MULES: Solving for alpha.water
steam fraction, min, max = 0.9900726879 0.9900726879 0.9900726879
water fraction, min, max = 0.009927312103 0.009927312103 0.009927312103
Phase-sum volume fraction, min, max = 1 1 1
MULES: Solving for alpha.steam
MULES: Solving for alpha.water
steam fraction, min, max = 0.9900756305 0.9900756305 0.9900756305
water fraction, min, max = 0.009924369513 0.009924369513 0.009924369513
Phase-sum volume fraction, min, max = 1 1 1
Constructing momentum equations
thermalPhaseChange:Tsat.steam_water: min = 372.76, mean = 372.76, max = 372.76
thermalPhaseChange:Tf.steam_water: min = 372.76, mean = 372.76, max = 372.76
thermalPhaseChange:dmdtf.steam_water: min = 1.816489766, mean = 1.816489766, max = 1.816489766, integral = 1.816489766
diagonal:  Solving for e.steam, Initial residual = 0, Final residual = 0, No Iterations 0
diagonal:  Solving for e.water, Initial residual = 0, Final residual = 0, No Iterations 0
steam min/max T 389.8321916 - 389.8321916
water min/max T 376.0072868 - 376.0072868
diagonal:  Solving for p_rgh, Initial residual = 0, Final residual = 0, No Iterations 0
PIMPLE: Iteration 4
MULES: Solving for alpha.steam
MULES: Solving for alpha.water
steam fraction, min, max = 0.9900697497 0.9900697497 0.9900697497
water fraction, min, max = 0.009930250264 0.009930250264 0.009930250264
Phase-sum volume fraction, min, max = 1 1 1
MULES: Solving for alpha.steam
MULES: Solving for alpha.water
steam fraction, min, max = 0.9900726985 0.9900726985 0.9900726985
water fraction, min, max = 0.009927301503 0.009927301503 0.009927301503
Phase-sum volume fraction, min, max = 1 1 1
MULES: Solving for alpha.steam
MULES: Solving for alpha.water
steam fraction, min, max = 0.9900756464 0.9900756464 0.9900756464
water fraction, min, max = 0.009924353618 0.009924353618 0.009924353618
Phase-sum volume fraction, min, max = 1 1 1
Constructing momentum equations
thermalPhaseChange:Tsat.steam_water: min = 372.76, mean = 372.76, max = 372.76
thermalPhaseChange:Tf.steam_water: min = 372.76, mean = 372.76, max = 372.76
thermalPhaseChange:dmdtf.steam_water: min = 1.816465176, mean = 1.816465176, max = 1.816465176, integral = 1.816465176
diagonal:  Solving for e.steam, Initial residual = 0, Final residual = 0, No Iterations 0
diagonal:  Solving for e.water, Initial residual = 0, Final residual = 0, No Iterations 0
steam min/max T 389.8321739 - 389.8321739
water min/max T 376.0072874 - 376.0072874
diagonal:  Solving for p_rgh, Initial residual = 0, Final residual = 0, No Iterations 0
PIMPLE: Iteration 5
MULES: Solving for alpha.steam
MULES: Solving for alpha.water
steam fraction, min, max = 0.9900697497 0.9900697497 0.9900697497
water fraction, min, max = 0.009930250299 0.009930250299 0.009930250299
Phase-sum volume fraction, min, max = 1 1 1
MULES: Solving for alpha.steam
MULES: Solving for alpha.water
steam fraction, min, max = 0.9900726984 0.9900726984 0.9900726984
water fraction, min, max = 0.009927301574 0.009927301574 0.009927301574
Phase-sum volume fraction, min, max = 1 1 1
MULES: Solving for alpha.steam
MULES: Solving for alpha.water
steam fraction, min, max = 0.9900756463 0.9900756463 0.9900756463
water fraction, min, max = 0.009924353724 0.009924353724 0.009924353724
Phase-sum volume fraction, min, max = 1 1 1
Constructing momentum equations
thermalPhaseChange:Tsat.steam_water: min = 372.76, mean = 372.76, max = 372.76
thermalPhaseChange:Tf.steam_water: min = 372.76, mean = 372.76, max = 372.76
thermalPhaseChange:dmdtf.steam_water: min = 1.816465495, mean = 1.816465495, max = 1.816465495, integral = 1.816465495
diagonal:  Solving for e.steam, Initial residual = 0, Final residual = 0, No Iterations 0
diagonal:  Solving for e.water, Initial residual = 0, Final residual = 0, No Iterations 0
steam min/max T 389.8321742 - 389.8321742
water min/max T 376.0072874 - 376.0072874
diagonal:  Solving for p_rgh, Initial residual = 0, Final residual = 0, No Iterations 0
ExecutionTime = 0.298128 s  ClockTime = 19 s

Courant Number mean: 0 max: 0
Time = 0.035s

PIMPLE: Iteration 1
MULES: Solving for alpha.steam
MULES: Solving for alpha.water
steam fraction, min, max = 0.9900785933 0.9900785933 0.9900785933
water fraction, min, max = 0.009921406748 0.009921406748 0.009921406748
Phase-sum volume fraction, min, max = 1 1 1
MULES: Solving for alpha.steam
MULES: Solving for alpha.water
steam fraction, min, max = 0.9900815394 0.9900815394 0.9900815394
water fraction, min, max = 0.009918460648 0.009918460648 0.009918460648
Phase-sum volume fraction, min, max = 1 1 1
MULES: Solving for alpha.steam
MULES: Solving for alpha.water
steam fraction, min, max = 0.9900844846 0.9900844846 0.9900844846
water fraction, min, max = 0.009915515423 0.009915515423 0.009915515423
Phase-sum volume fraction, min, max = 1 1 1
Constructing momentum equations
thermalPhaseChange:Tsat.steam_water: min = 372.76, mean = 372.76, max = 372.76
thermalPhaseChange:Tf.steam_water: min = 372.76, mean = 372.76, max = 372.76
thermalPhaseChange:dmdtf.steam_water: min = 1.814847809, mean = 1.814847809, max = 1.814847809, integral = 1.814847809
diagonal:  Solving for e.steam, Initial residual = 0, Final residual = 0, No Iterations 0
diagonal:  Solving for e.water, Initial residual = 0, Final residual = 0, No Iterations 0
steam min/max T 389.1141852 - 389.1141852
water min/max T 375.6003424 - 375.6003424
diagonal:  Solving for p_rgh, Initial residual = 0, Final residual = 0, No Iterations 0
PIMPLE: Iteration 2
MULES: Solving for alpha.steam
MULES: Solving for alpha.water
steam fraction, min, max = 0.9900785933 0.9900785933 0.9900785933
water fraction, min, max = 0.009921406748 0.009921406748 0.009921406748
Phase-sum volume fraction, min, max = 1 1 1
MULES: Solving for alpha.steam
MULES: Solving for alpha.water
steam fraction, min, max = 0.9900815394 0.9900815394 0.9900815394
water fraction, min, max = 0.009918460648 0.009918460648 0.009918460648
Phase-sum volume fraction, min, max = 1 1 1
MULES: Solving for alpha.steam
MULES: Solving for alpha.water
steam fraction, min, max = 0.9900844846 0.9900844846 0.9900844846
water fraction, min, max = 0.009915515423 0.009915515423 0.009915515423
Phase-sum volume fraction, min, max = 1 1 1
Constructing momentum equations
thermalPhaseChange:Tsat.steam_water: min = 372.76, mean = 372.76, max = 372.76
thermalPhaseChange:Tf.steam_water: min = 372.76, mean = 372.76, max = 372.76
thermalPhaseChange:dmdtf.steam_water: min = 1.590749915, mean = 1.590749915, max = 1.590749915, integral = 1.590749915
diagonal:  Solving for e.steam, Initial residual = 0, Final residual = 0, No Iterations 0
diagonal:  Solving for e.water, Initial residual = 0, Final residual = 0, No Iterations 0
steam min/max T 390.4780612 - 390.4780612
water min/max T 375.5997581 - 375.5997581
diagonal:  Solving for p_rgh, Initial residual = 0, Final residual = 0, No Iterations 0
PIMPLE: Iteration 3
MULES: Solving for alpha.steam
MULES: Solving for alpha.water
steam fraction, min, max = 0.9900782295 0.9900782295 0.9900782295
water fraction, min, max = 0.009921770547 0.009921770547 0.009921770547
Phase-sum volume fraction, min, max = 1 1 1
MULES: Solving for alpha.steam
MULES: Solving for alpha.water
steam fraction, min, max = 0.990080812 0.990080812 0.990080812
water fraction, min, max = 0.009919188043 0.009919188043 0.009919188043
Phase-sum volume fraction, min, max = 1 1 1
MULES: Solving for alpha.steam
MULES: Solving for alpha.water
steam fraction, min, max = 0.9900833938 0.9900833938 0.9900833938
water fraction, min, max = 0.009916606211 0.009916606211 0.009916606211
Phase-sum volume fraction, min, max = 1 1 1
Constructing momentum equations
thermalPhaseChange:Tsat.steam_water: min = 372.76, mean = 372.76, max = 372.76
thermalPhaseChange:Tf.steam_water: min = 372.76, mean = 372.76, max = 372.76
thermalPhaseChange:dmdtf.steam_water: min = 1.593805876, mean = 1.593805876, max = 1.593805876, integral = 1.593805876
diagonal:  Solving for e.steam, Initial residual = 0, Final residual = 0, No Iterations 0
diagonal:  Solving for e.water, Initial residual = 0, Final residual = 0, No Iterations 0
steam min/max T 390.4801649 - 390.4801649
water min/max T 375.5997193 - 375.5997193
diagonal:  Solving for p_rgh, Initial residual = 0, Final residual = 0, No Iterations 0
PIMPLE: Iteration 4
MULES: Solving for alpha.steam
MULES: Solving for alpha.water
steam fraction, min, max = 0.9900782341 0.9900782341 0.9900782341
water fraction, min, max = 0.00992176587 0.00992176587 0.00992176587
Phase-sum volume fraction, min, max = 1 1 1
MULES: Solving for alpha.steam
MULES: Solving for alpha.water
steam fraction, min, max = 0.9900808213 0.9900808213 0.9900808213
water fraction, min, max = 0.009919178692 0.009919178692 0.009919178692
Phase-sum volume fraction, min, max = 1 1 1
MULES: Solving for alpha.steam
MULES: Solving for alpha.water
steam fraction, min, max = 0.9900834078 0.9900834078 0.9900834078
water fraction, min, max = 0.009916592188 0.009916592188 0.009916592188
Phase-sum volume fraction, min, max = 1 1 1
Constructing momentum equations
thermalPhaseChange:Tsat.steam_water: min = 372.76, mean = 372.76, max = 372.76
thermalPhaseChange:Tf.steam_water: min = 372.76, mean = 372.76, max = 372.76
thermalPhaseChange:dmdtf.steam_water: min = 1.593787378, mean = 1.593787378, max = 1.593787378, integral = 1.593787378
diagonal:  Solving for e.steam, Initial residual = 0, Final residual = 0, No Iterations 0
diagonal:  Solving for e.water, Initial residual = 0, Final residual = 0, No Iterations 0
steam min/max T 390.4801517 - 390.4801517
water min/max T 375.5997198 - 375.5997198
diagonal:  Solving for p_rgh, Initial residual = 0, Final residual = 0, No Iterations 0
PIMPLE: Iteration 5
MULES: Solving for alpha.steam
MULES: Solving for alpha.water
steam fraction, min, max = 0.9900782341 0.9900782341 0.9900782341
water fraction, min, max = 0.009921765897 0.009921765897 0.009921765897
Phase-sum volume fraction, min, max = 1 1 1
MULES: Solving for alpha.steam
MULES: Solving for alpha.water
steam fraction, min, max = 0.9900808213 0.9900808213 0.9900808213
water fraction, min, max = 0.009919178745 0.009919178745 0.009919178745
Phase-sum volume fraction, min, max = 1 1 1
MULES: Solving for alpha.steam
MULES: Solving for alpha.water
steam fraction, min, max = 0.9900834077 0.9900834077 0.9900834077
water fraction, min, max = 0.009916592267 0.009916592267 0.009916592267
Phase-sum volume fraction, min, max = 1 1 1
Constructing momentum equations
thermalPhaseChange:Tsat.steam_water: min = 372.76, mean = 372.76, max = 372.76
thermalPhaseChange:Tf.steam_water: min = 372.76, mean = 372.76, max = 372.76
thermalPhaseChange:dmdtf.steam_water: min = 1.59378763, mean = 1.59378763, max = 1.59378763, integral = 1.59378763
diagonal:  Solving for e.steam, Initial residual = 0, Final residual = 0, No Iterations 0
diagonal:  Solving for e.water, Initial residual = 0, Final residual = 0, No Iterations 0
steam min/max T 390.4801519 - 390.4801519
water min/max T 375.5997198 - 375.5997198
diagonal:  Solving for p_rgh, Initial residual = 0, Final residual = 0, No Iterations 0
ExecutionTime = 0.325407 s  ClockTime = 19 s

Courant Number mean: 0 max: 0
Time = 0.04s

PIMPLE: Iteration 1
MULES: Solving for alpha.steam
MULES: Solving for alpha.water
steam fraction, min, max = 0.9900859935 0.9900859935 0.9900859935
water fraction, min, max = 0.009914006464 0.009914006464 0.009914006464
Phase-sum volume fraction, min, max = 1 1 1
MULES: Solving for alpha.steam
MULES: Solving for alpha.water
steam fraction, min, max = 0.9900885787 0.9900885787 0.9900885787
water fraction, min, max = 0.009911421335 0.009911421335 0.009911421335
Phase-sum volume fraction, min, max = 1 1 1
MULES: Solving for alpha.steam
MULES: Solving for alpha.water
steam fraction, min, max = 0.9900911631 0.9900911631 0.9900911631
water fraction, min, max = 0.00990883688 0.00990883688 0.00990883688
Phase-sum volume fraction, min, max = 1 1 1
Constructing momentum equations
thermalPhaseChange:Tsat.steam_water: min = 372.76, mean = 372.76, max = 372.76
thermalPhaseChange:Tf.steam_water: min = 372.76, mean = 372.76, max = 372.76
thermalPhaseChange:dmdtf.steam_water: min = 1.592541189, mean = 1.592541189, max = 1.592541189, integral = 1.592541189
diagonal:  Solving for e.steam, Initial residual = 0, Final residual = 0, No Iterations 0
diagonal:  Solving for e.water, Initial residual = 0, Final residual = 0, No Iterations 0
steam min/max T 389.7805304 - 389.7805304
water min/max T 375.2435486 - 375.2435486
diagonal:  Solving for p_rgh, Initial residual = 0, Final residual = 0, No Iterations 0
PIMPLE: Iteration 2
MULES: Solving for alpha.steam
MULES: Solving for alpha.water
steam fraction, min, max = 0.9900859935 0.9900859935 0.9900859935
water fraction, min, max = 0.009914006464 0.009914006464 0.009914006464
Phase-sum volume fraction, min, max = 1 1 1
MULES: Solving for alpha.steam
MULES: Solving for alpha.water
steam fraction, min, max = 0.9900885787 0.9900885787 0.9900885787
water fraction, min, max = 0.009911421335 0.009911421335 0.009911421335
Phase-sum volume fraction, min, max = 1 1 1
MULES: Solving for alpha.steam
MULES: Solving for alpha.water
steam fraction, min, max = 0.9900911631 0.9900911631 0.9900911631
water fraction, min, max = 0.00990883688 0.00990883688 0.00990883688
Phase-sum volume fraction, min, max = 1 1 1
Constructing momentum equations
thermalPhaseChange:Tsat.steam_water: min = 372.76, mean = 372.76, max = 372.76
thermalPhaseChange:Tf.steam_water: min = 372.76, mean = 372.76, max = 372.76
thermalPhaseChange:dmdtf.steam_water: min = 1.396368447, mean = 1.396368447, max = 1.396368447, integral = 1.396368447
diagonal:  Solving for e.steam, Initial residual = 0, Final residual = 0, No Iterations 0
diagonal:  Solving for e.water, Initial residual = 0, Final residual = 0, No Iterations 0
steam min/max T 390.9682615 - 390.9682615
water min/max T 375.2431004 - 375.2431004
diagonal:  Solving for p_rgh, Initial residual = 0, Final residual = 0, No Iterations 0
PIMPLE: Iteration 3
MULES: Solving for alpha.steam
MULES: Solving for alpha.water
steam fraction, min, max = 0.9900856751 0.9900856751 0.9900856751
water fraction, min, max = 0.009914324916 0.009914324916 0.009914324916
Phase-sum volume fraction, min, max = 1 1 1
MULES: Solving for alpha.steam
MULES: Solving for alpha.water
steam fraction, min, max = 0.9900879419 0.9900879419 0.9900879419
water fraction, min, max = 0.009912058083 0.009912058083 0.009912058083
Phase-sum volume fraction, min, max = 1 1 1
MULES: Solving for alpha.steam
MULES: Solving for alpha.water
steam fraction, min, max = 0.9900902082 0.9900902082 0.9900902082
water fraction, min, max = 0.009909791769 0.009909791769 0.009909791769
Phase-sum volume fraction, min, max = 1 1 1
Constructing momentum equations
thermalPhaseChange:Tsat.steam_water: min = 372.76, mean = 372.76, max = 372.76
thermalPhaseChange:Tf.steam_water: min = 372.76, mean = 372.76, max = 372.76
thermalPhaseChange:dmdtf.steam_water: min = 1.399043353, mean = 1.399043353, max = 1.399043353, integral = 1.399043353
diagonal:  Solving for e.steam, Initial residual = 0, Final residual = 0, No Iterations 0
diagonal:  Solving for e.water, Initial residual = 0, Final residual = 0, No Iterations 0
steam min/max T 390.9700743 - 390.9700743
water min/max T 375.2430705 - 375.2430705
diagonal:  Solving for p_rgh, Initial residual = 0, Final residual = 0, No Iterations 0
PIMPLE: Iteration 4
MULES: Solving for alpha.steam
MULES: Solving for alpha.water
steam fraction, min, max = 0.9900856792 0.9900856792 0.9900856792
water fraction, min, max = 0.009914320793 0.009914320793 0.009914320793
Phase-sum volume fraction, min, max = 1 1 1
MULES: Solving for alpha.steam
MULES: Solving for alpha.water
steam fraction, min, max = 0.9900879502 0.9900879502 0.9900879502
water fraction, min, max = 0.009912049838 0.009912049838 0.009912049838
Phase-sum volume fraction, min, max = 1 1 1
MULES: Solving for alpha.steam
MULES: Solving for alpha.water
steam fraction, min, max = 0.9900902206 0.9900902206 0.9900902206
water fraction, min, max = 0.009909779404 0.009909779404 0.009909779404
Phase-sum volume fraction, min, max = 1 1 1
Constructing momentum equations
thermalPhaseChange:Tsat.steam_water: min = 372.76, mean = 372.76, max = 372.76
thermalPhaseChange:Tf.steam_water: min = 372.76, mean = 372.76, max = 372.76
thermalPhaseChange:dmdtf.steam_water: min = 1.399029488, mean = 1.399029488, max = 1.399029488, integral = 1.399029488
diagonal:  Solving for e.steam, Initial residual = 0, Final residual = 0, No Iterations 0
diagonal:  Solving for e.water, Initial residual = 0, Final residual = 0, No Iterations 0
steam min/max T 390.9700645 - 390.9700645
water min/max T 375.2430709 - 375.2430709
diagonal:  Solving for p_rgh, Initial residual = 0, Final residual = 0, No Iterations 0
PIMPLE: Iteration 5
MULES: Solving for alpha.steam
MULES: Solving for alpha.water
steam fraction, min, max = 0.9900856792 0.9900856792 0.9900856792
water fraction, min, max = 0.009914320812 0.009914320812 0.009914320812
Phase-sum volume fraction, min, max = 1 1 1
MULES: Solving for alpha.steam
MULES: Solving for alpha.water
steam fraction, min, max = 0.9900879501 0.9900879501 0.9900879501
water fraction, min, max = 0.009912049877 0.009912049877 0.009912049877
Phase-sum volume fraction, min, max = 1 1 1
MULES: Solving for alpha.steam
MULES: Solving for alpha.water
steam fraction, min, max = 0.9900902205 0.9900902205 0.9900902205
water fraction, min, max = 0.009909779463 0.009909779463 0.009909779463
Phase-sum volume fraction, min, max = 1 1 1
Constructing momentum equations
thermalPhaseChange:Tsat.steam_water: min = 372.76, mean = 372.76, max = 372.76
thermalPhaseChange:Tf.steam_water: min = 372.76, mean = 372.76, max = 372.76
thermalPhaseChange:dmdtf.steam_water: min = 1.399029686, mean = 1.399029686, max = 1.399029686, integral = 1.399029686
diagonal:  Solving for e.steam, Initial residual = 0, Final residual = 0, No Iterations 0
diagonal:  Solving for e.water, Initial residual = 0, Final residual = 0, No Iterations 0
steam min/max T 390.9700646 - 390.9700646
water min/max T 375.2430709 - 375.2430709
diagonal:  Solving for p_rgh, Initial residual = 0, Final residual = 0, No Iterations 0
ExecutionTime = 0.352306 s  ClockTime = 19 s

Courant Number mean: 0 max: 0
Time = 0.045s

PIMPLE: Iteration 1
MULES: Solving for alpha.steam
MULES: Solving for alpha.water
steam fraction, min, max = 0.9900924904 0.9900924904 0.9900924904
water fraction, min, max = 0.009907509568 0.009907509568 0.009907509568
Phase-sum volume fraction, min, max = 1 1 1
MULES: Solving for alpha.steam
MULES: Solving for alpha.water
steam fraction, min, max = 0.9900947598 0.9900947598 0.9900947598
water fraction, min, max = 0.009905240193 0.009905240193 0.009905240193
Phase-sum volume fraction, min, max = 1 1 1
MULES: Solving for alpha.steam
MULES: Solving for alpha.water
steam fraction, min, max = 0.9900970287 0.9900970287 0.9900970287
water fraction, min, max = 0.009902971338 0.009902971338 0.009902971338
Phase-sum volume fraction, min, max = 1 1 1
Constructing momentum equations
thermalPhaseChange:Tsat.steam_water: min = 372.76, mean = 372.76, max = 372.76
thermalPhaseChange:Tf.steam_water: min = 372.76, mean = 372.76, max = 372.76
thermalPhaseChange:dmdtf.steam_water: min = 1.398068537, mean = 1.398068537, max = 1.398068537, integral = 1.398068537
diagonal:  Solving for e.steam, Initial residual = 0, Final residual = 0, No Iterations 0
diagonal:  Solving for e.water, Initial residual = 0, Final residual = 0, No Iterations 0
steam min/max T 390.2913276 - 390.2913276
water min/max T 374.9314009 - 374.9314009
diagonal:  Solving for p_rgh, Initial residual = 0, Final residual = 0, No Iterations 0
PIMPLE: Iteration 2
MULES: Solving for alpha.steam
MULES: Solving for alpha.water
steam fraction, min, max = 0.9900924904 0.9900924904 0.9900924904
water fraction, min, max = 0.009907509568 0.009907509568 0.009907509568
Phase-sum volume fraction, min, max = 1 1 1
MULES: Solving for alpha.steam
MULES: Solving for alpha.water
steam fraction, min, max = 0.9900947598 0.9900947598 0.9900947598
water fraction, min, max = 0.009905240193 0.009905240193 0.009905240193
Phase-sum volume fraction, min, max = 1 1 1
MULES: Solving for alpha.steam
MULES: Solving for alpha.water
steam fraction, min, max = 0.9900970287 0.9900970287 0.9900970287
water fraction, min, max = 0.009902971338 0.009902971338 0.009902971338
Phase-sum volume fraction, min, max = 1 1 1
Constructing momentum equations
thermalPhaseChange:Tsat.steam_water: min = 372.76, mean = 372.76, max = 372.76
thermalPhaseChange:Tf.steam_water: min = 372.76, mean = 372.76, max = 372.76
thermalPhaseChange:dmdtf.steam_water: min = 1.226351843, mean = 1.226351843, max = 1.226351843, integral = 1.226351843
diagonal:  Solving for e.steam, Initial residual = 0, Final residual = 0, No Iterations 0
diagonal:  Solving for e.water, Initial residual = 0, Final residual = 0, No Iterations 0
steam min/max T 391.3269125 - 391.3269125
water min/max T 374.9310573 - 374.9310573
diagonal:  Solving for p_rgh, Initial residual = 0, Final residual = 0, No Iterations 0
PIMPLE: Iteration 3
MULES: Solving for alpha.steam
MULES: Solving for alpha.water
steam fraction, min, max = 0.9900922117 0.9900922117 0.9900922117
water fraction, min, max = 0.00990778831 0.00990778831 0.00990778831
Phase-sum volume fraction, min, max = 1 1 1
MULES: Solving for alpha.steam
MULES: Solving for alpha.water
steam fraction, min, max = 0.9900942024 0.9900942024 0.9900942024
water fraction, min, max = 0.009905797557 0.009905797557 0.009905797557
Phase-sum volume fraction, min, max = 1 1 1
MULES: Solving for alpha.steam
MULES: Solving for alpha.water
steam fraction, min, max = 0.9900961928 0.9900961928 0.9900961928
water fraction, min, max = 0.009903807205 0.009903807205 0.009903807205
Phase-sum volume fraction, min, max = 1 1 1
Constructing momentum equations
thermalPhaseChange:Tsat.steam_water: min = 372.76, mean = 372.76, max = 372.76
thermalPhaseChange:Tf.steam_water: min = 372.76, mean = 372.76, max = 372.76
thermalPhaseChange:dmdtf.steam_water: min = 1.228694654, mean = 1.228694654, max = 1.228694654, integral = 1.228694654
diagonal:  Solving for e.steam, Initial residual = 0, Final residual = 0, No Iterations 0
diagonal:  Solving for e.water, Initial residual = 0, Final residual = 0, No Iterations 0
steam min/max T 391.32848 - 391.32848
water min/max T 374.9310341 - 374.9310341
diagonal:  Solving for p_rgh, Initial residual = 0, Final residual = 0, No Iterations 0
PIMPLE: Iteration 4
MULES: Solving for alpha.steam
MULES: Solving for alpha.water
steam fraction, min, max = 0.9900922153 0.9900922153 0.9900922153
water fraction, min, max = 0.009907784675 0.009907784675 0.009907784675
Phase-sum volume fraction, min, max = 1 1 1
MULES: Solving for alpha.steam
MULES: Solving for alpha.water
steam fraction, min, max = 0.9900942097 0.9900942097 0.9900942097
water fraction, min, max = 0.009905790289 0.009905790289 0.009905790289
Phase-sum volume fraction, min, max = 1 1 1
MULES: Solving for alpha.steam
MULES: Solving for alpha.water
steam fraction, min, max = 0.9900962037 0.9900962037 0.9900962037
water fraction, min, max = 0.009903796305 0.009903796305 0.009903796305
Phase-sum volume fraction, min, max = 1 1 1
Constructing momentum equations
thermalPhaseChange:Tsat.steam_water: min = 372.76, mean = 372.76, max = 372.76
thermalPhaseChange:Tf.steam_water: min = 372.76, mean = 372.76, max = 372.76
thermalPhaseChange:dmdtf.steam_water: min = 1.228684305, mean = 1.228684305, max = 1.228684305, integral = 1.228684305
diagonal:  Solving for e.steam, Initial residual = 0, Final residual = 0, No Iterations 0
diagonal:  Solving for e.water, Initial residual = 0, Final residual = 0, No Iterations 0
steam min/max T 391.3284726 - 391.3284726
water min/max T 374.9310344 - 374.9310344
diagonal:  Solving for p_rgh, Initial residual = 0, Final residual = 0, No Iterations 0
PIMPLE: Iteration 5
MULES: Solving for alpha.steam
MULES: Solving for alpha.water
steam fraction, min, max = 0.9900922153 0.9900922153 0.9900922153
water fraction, min, max = 0.00990778469 0.00990778469 0.00990778469
Phase-sum volume fraction, min, max = 1 1 1
MULES: Solving for alpha.steam
MULES: Solving for alpha.water
steam fraction, min, max = 0.9900942097 0.9900942097 0.9900942097
water fraction, min, max = 0.009905790318 0.009905790318 0.009905790318
Phase-sum volume fraction, min, max = 1 1 1
MULES: Solving for alpha.steam
MULES: Solving for alpha.water
steam fraction, min, max = 0.9900962037 0.9900962037 0.9900962037
water fraction, min, max = 0.009903796348 0.009903796348 0.009903796348
Phase-sum volume fraction, min, max = 1 1 1
Constructing momentum equations
thermalPhaseChange:Tsat.steam_water: min = 372.76, mean = 372.76, max = 372.76
thermalPhaseChange:Tf.steam_water: min = 372.76, mean = 372.76, max = 372.76
thermalPhaseChange:dmdtf.steam_water: min = 1.228684461, mean = 1.228684461, max = 1.228684461, integral = 1.228684461
diagonal:  Solving for e.steam, Initial residual = 0, Final residual = 0, No Iterations 0
diagonal:  Solving for e.water, Initial residual = 0, Final residual = 0, No Iterations 0
steam min/max T 391.3284727 - 391.3284727
water min/max T 374.9310344 - 374.9310344
diagonal:  Solving for p_rgh, Initial residual = 0, Final residual = 0, No Iterations 0
ExecutionTime = 0.371356 s  ClockTime = 19 s

Courant Number mean: 0 max: 0
Time = 0.05s

PIMPLE: Iteration 1
MULES: Solving for alpha.steam
MULES: Solving for alpha.water
steam fraction, min, max = 0.9900981972 0.9900981972 0.9900981972
water fraction, min, max = 0.00990180278 0.00990180278 0.00990180278
Phase-sum volume fraction, min, max = 1 1 1
MULES: Solving for alpha.steam
MULES: Solving for alpha.water
steam fraction, min, max = 0.9901001904 0.9901001904 0.9901001904
water fraction, min, max = 0.009899809612 0.009899809612 0.009899809612
Phase-sum volume fraction, min, max = 1 1 1
MULES: Solving for alpha.steam
MULES: Solving for alpha.water
steam fraction, min, max = 0.9901021832 0.9901021832 0.9901021832
water fraction, min, max = 0.009897816846 0.009897816846 0.009897816846
Phase-sum volume fraction, min, max = 1 1 1
Constructing momentum equations
thermalPhaseChange:Tsat.steam_water: min = 372.76, mean = 372.76, max = 372.76
thermalPhaseChange:Tf.steam_water: min = 372.76, mean = 372.76, max = 372.76
thermalPhaseChange:dmdtf.steam_water: min = 1.227942632, mean = 1.227942632, max = 1.227942632, integral = 1.227942632
diagonal:  Solving for e.steam, Initial residual = 0, Final residual = 0, No Iterations 0
diagonal:  Solving for e.water, Initial residual = 0, Final residual = 0, No Iterations 0
steam min/max T 390.671671 - 390.671671
water min/max T 374.6583535 - 374.6583535
diagonal:  Solving for p_rgh, Initial residual = 0, Final residual = 0, No Iterations 0
PIMPLE: Iteration 2
MULES: Solving for alpha.steam
MULES: Solving for alpha.water
steam fraction, min, max = 0.9900981972 0.9900981972 0.9900981972
water fraction, min, max = 0.00990180278 0.00990180278 0.00990180278
Phase-sum volume fraction, min, max = 1 1 1
MULES: Solving for alpha.steam
MULES: Solving for alpha.water
steam fraction, min, max = 0.9901001904 0.9901001904 0.9901001904
water fraction, min, max = 0.009899809612 0.009899809612 0.009899809612
Phase-sum volume fraction, min, max = 1 1 1
MULES: Solving for alpha.steam
MULES: Solving for alpha.water
steam fraction, min, max = 0.9901021832 0.9901021832 0.9901021832
water fraction, min, max = 0.009897816846 0.009897816846 0.009897816846
Phase-sum volume fraction, min, max = 1 1 1
Constructing momentum equations
thermalPhaseChange:Tsat.steam_water: min = 372.76, mean = 372.76, max = 372.76
thermalPhaseChange:Tf.steam_water: min = 372.76, mean = 372.76, max = 372.76
thermalPhaseChange:dmdtf.steam_water: min = 1.077637776, mean = 1.077637776, max = 1.077637776, integral = 1.077637776
diagonal:  Solving for e.steam, Initial residual = 0, Final residual = 0, No Iterations 0
diagonal:  Solving for e.water, Initial residual = 0, Final residual = 0, No Iterations 0
steam min/max T 391.5756682 - 391.5756682
water min/max T 374.6580901 - 374.6580901
diagonal:  Solving for p_rgh, Initial residual = 0, Final residual = 0, No Iterations 0
PIMPLE: Iteration 3
MULES: Solving for alpha.steam
MULES: Solving for alpha.water
steam fraction, min, max = 0.9900979532 0.9900979532 0.9900979532
water fraction, min, max = 0.009902046757 0.009902046757 0.009902046757
Phase-sum volume fraction, min, max = 1 1 1
MULES: Solving for alpha.steam
MULES: Solving for alpha.water
steam fraction, min, max = 0.9900997025 0.9900997025 0.9900997025
water fraction, min, max = 0.009900297474 0.009900297474 0.009900297474
Phase-sum volume fraction, min, max = 1 1 1
MULES: Solving for alpha.steam
MULES: Solving for alpha.water
steam fraction, min, max = 0.9901014515 0.9901014515 0.9901014515
water fraction, min, max = 0.009898548501 0.009898548501 0.009898548501
Phase-sum volume fraction, min, max = 1 1 1
Constructing momentum equations
thermalPhaseChange:Tsat.steam_water: min = 372.76, mean = 372.76, max = 372.76
thermalPhaseChange:Tf.steam_water: min = 372.76, mean = 372.76, max = 372.76
thermalPhaseChange:dmdtf.steam_water: min = 1.079691065, mean = 1.079691065, max = 1.079691065, integral = 1.079691065
diagonal:  Solving for e.steam, Initial residual = 0, Final residual = 0, No Iterations 0
diagonal:  Solving for e.water, Initial residual = 0, Final residual = 0, No Iterations 0
steam min/max T 391.5770277 - 391.5770277
water min/max T 374.658072 - 374.658072
diagonal:  Solving for p_rgh, Initial residual = 0, Final residual = 0, No Iterations 0
PIMPLE: Iteration 4
MULES: Solving for alpha.steam
MULES: Solving for alpha.water
steam fraction, min, max = 0.9900979564 0.9900979564 0.9900979564
water fraction, min, max = 0.009902043553 0.009902043553 0.009902043553
Phase-sum volume fraction, min, max = 1 1 1
MULES: Solving for alpha.steam
MULES: Solving for alpha.water
steam fraction, min, max = 0.9900997089 0.9900997089 0.9900997089
water fraction, min, max = 0.009900291069 0.009900291069 0.009900291069
Phase-sum volume fraction, min, max = 1 1 1
MULES: Solving for alpha.steam
MULES: Solving for alpha.water
steam fraction, min, max = 0.9901014611 0.9901014611 0.9901014611
water fraction, min, max = 0.009898538894 0.009898538894 0.009898538894
Phase-sum volume fraction, min, max = 1 1 1
Constructing momentum equations
thermalPhaseChange:Tsat.steam_water: min = 372.76, mean = 372.76, max = 372.76
thermalPhaseChange:Tf.steam_water: min = 372.76, mean = 372.76, max = 372.76
thermalPhaseChange:dmdtf.steam_water: min = 1.07968338, mean = 1.07968338, max = 1.07968338, integral = 1.07968338
diagonal:  Solving for e.steam, Initial residual = 0, Final residual = 0, No Iterations 0
diagonal:  Solving for e.water, Initial residual = 0, Final residual = 0, No Iterations 0
steam min/max T 391.5770222 - 391.5770222
water min/max T 374.6580723 - 374.6580723
diagonal:  Solving for p_rgh, Initial residual = 0, Final residual = 0, No Iterations 0
PIMPLE: Iteration 5
MULES: Solving for alpha.steam
MULES: Solving for alpha.water
steam fraction, min, max = 0.9900979564 0.9900979564 0.9900979564
water fraction, min, max = 0.009902043564 0.009902043564 0.009902043564
Phase-sum volume fraction, min, max = 1 1 1
MULES: Solving for alpha.steam
MULES: Solving for alpha.water
steam fraction, min, max = 0.9900997089 0.9900997089 0.9900997089
water fraction, min, max = 0.00990029109 0.00990029109 0.00990029109
Phase-sum volume fraction, min, max = 1 1 1
MULES: Solving for alpha.steam
MULES: Solving for alpha.water
steam fraction, min, max = 0.9901014611 0.9901014611 0.9901014611
water fraction, min, max = 0.009898538926 0.009898538926 0.009898538926
Phase-sum volume fraction, min, max = 1 1 1
Constructing momentum equations
thermalPhaseChange:Tsat.steam_water: min = 372.76, mean = 372.76, max = 372.76
thermalPhaseChange:Tf.steam_water: min = 372.76, mean = 372.76, max = 372.76
thermalPhaseChange:dmdtf.steam_water: min = 1.079683503, mean = 1.079683503, max = 1.079683503, integral = 1.079683503
diagonal:  Solving for e.steam, Initial residual = 0, Final residual = 0, No Iterations 0
diagonal:  Solving for e.water, Initial residual = 0, Final residual = 0, No Iterations 0
steam min/max T 391.5770223 - 391.5770223
water min/max T 374.6580723 - 374.6580723
diagonal:  Solving for p_rgh, Initial residual = 0, Final residual = 0, No Iterations 0
ExecutionTime = 0.385281 s  ClockTime = 19 s

Courant Number mean: 0 max: 0
Time = 0.055s

PIMPLE: Iteration 1
MULES: Solving for alpha.steam
MULES: Solving for alpha.water
steam fraction, min, max = 0.9901032129 0.9901032129 0.9901032129
water fraction, min, max = 0.009896787072 0.009896787072 0.009896787072
Phase-sum volume fraction, min, max = 1 1 1
MULES: Solving for alpha.steam
MULES: Solving for alpha.water
steam fraction, min, max = 0.9901049645 0.9901049645 0.9901049645
water fraction, min, max = 0.009895035528 0.009895035528 0.009895035528
Phase-sum volume fraction, min, max = 1 1 1
MULES: Solving for alpha.steam
MULES: Solving for alpha.water
steam fraction, min, max = 0.9901067157 0.9901067157 0.9901067157
water fraction, min, max = 0.009893284294 0.009893284294 0.009893284294
Phase-sum volume fraction, min, max = 1 1 1
Constructing momentum equations
thermalPhaseChange:Tsat.steam_water: min = 372.76, mean = 372.76, max = 372.76
thermalPhaseChange:Tf.steam_water: min = 372.76, mean = 372.76, max = 372.76
thermalPhaseChange:dmdtf.steam_water: min = 1.079110354, mean = 1.079110354, max = 1.079110354, integral = 1.079110354
diagonal:  Solving for e.steam, Initial residual = 0, Final residual = 0, No Iterations 0
diagonal:  Solving for e.water, Initial residual = 0, Final residual = 0, No Iterations 0
steam min/max T 390.9422766 - 390.9422766
water min/max T 374.4195397 - 374.4195397
diagonal:  Solving for p_rgh, Initial residual = 0, Final residual = 0, No Iterations 0
PIMPLE: Iteration 2
MULES: Solving for alpha.steam
MULES: Solving for alpha.water
steam fraction, min, max = 0.9901032129 0.9901032129 0.9901032129
water fraction, min, max = 0.009896787072 0.009896787072 0.009896787072
Phase-sum volume fraction, min, max = 1 1 1
MULES: Solving for alpha.steam
MULES: Solving for alpha.water
steam fraction, min, max = 0.9901049645 0.9901049645 0.9901049645
water fraction, min, max = 0.009895035528 0.009895035528 0.009895035528
Phase-sum volume fraction, min, max = 1 1 1
MULES: Solving for alpha.steam
MULES: Solving for alpha.water
steam fraction, min, max = 0.9901067157 0.9901067157 0.9901067157
water fraction, min, max = 0.009893284294 0.009893284294 0.009893284294
Phase-sum volume fraction, min, max = 1 1 1
Constructing momentum equations
thermalPhaseChange:Tsat.steam_water: min = 372.76, mean = 372.76, max = 372.76
thermalPhaseChange:Tf.steam_water: min = 372.76, mean = 372.76, max = 372.76
thermalPhaseChange:dmdtf.steam_water: min = 0.947547604, mean = 0.947547604, max = 0.947547604, integral = 0.947547604
diagonal:  Solving for e.steam, Initial residual = 0, Final residual = 0, No Iterations 0
diagonal:  Solving for e.water, Initial residual = 0, Final residual = 0, No Iterations 0
steam min/max T 391.7323323 - 391.7323323
water min/max T 374.4193377 - 374.4193377
diagonal:  Solving for p_rgh, Initial residual = 0, Final residual = 0, No Iterations 0
PIMPLE: Iteration 3
MULES: Solving for alpha.steam
MULES: Solving for alpha.water
steam fraction, min, max = 0.9901029994 0.9901029994 0.9901029994
water fraction, min, max = 0.009897000621 0.009897000621 0.009897000621
Phase-sum volume fraction, min, max = 1 1 1
MULES: Solving for alpha.steam
MULES: Solving for alpha.water
steam fraction, min, max = 0.9901045374 0.9901045374 0.9901045374
water fraction, min, max = 0.009895462555 0.009895462555 0.009895462555
Phase-sum volume fraction, min, max = 1 1 1
MULES: Solving for alpha.steam
MULES: Solving for alpha.water
steam fraction, min, max = 0.9901060753 0.9901060753 0.9901060753
water fraction, min, max = 0.009893924728 0.009893924728 0.009893924728
Phase-sum volume fraction, min, max = 1 1 1
Constructing momentum equations
thermalPhaseChange:Tsat.steam_water: min = 372.76, mean = 372.76, max = 372.76
thermalPhaseChange:Tf.steam_water: min = 372.76, mean = 372.76, max = 372.76
thermalPhaseChange:dmdtf.steam_water: min = 0.9493484089, mean = 0.9493484089, max = 0.9493484089, integral = 0.9493484089
diagonal:  Solving for e.steam, Initial residual = 0, Final residual = 0, No Iterations 0
[...]
PIMPLE: Iteration 2
MULES: Solving for alpha.steam
MULES: Solving for alpha.water
steam fraction, min, max = 0.9901484954 0.9901484954 0.9901484954
water fraction, min, max = 0.009851504638 0.009851504638 0.009851504638
Phase-sum volume fraction, min, max = 1 1 1
MULES: Solving for alpha.steam
MULES: Solving for alpha.water
steam fraction, min, max = 0.9901484972 0.9901484972 0.9901484972
water fraction, min, max = 0.009851502826 0.009851502826 0.009851502826
Phase-sum volume fraction, min, max = 1 1 1
MULES: Solving for alpha.steam
MULES: Solving for alpha.water
steam fraction, min, max = 0.990148499 0.990148499 0.990148499
water fraction, min, max = 0.009851501013 0.009851501013 0.009851501013
Phase-sum volume fraction, min, max = 1 1 1
Constructing momentum equations
thermalPhaseChange:Tsat.steam_water: min = 372.76, mean = 372.76, max = 372.76
thermalPhaseChange:Tf.steam_water: min = 372.76, mean = 372.76, max = 372.76
thermalPhaseChange:dmdtf.steam_water: min = 0.001092234857, mean = 0.001092234857, max = 0.001092234857, integral = 0.001092234857
diagonal:  Solving for e.steam, Initial residual = 0, Final residual = 0, No Iterations 0
diagonal:  Solving for e.water, Initial residual = 0, Final residual = 0, No Iterations 0
steam min/max T 373.229356 - 373.229356
water min/max T 372.76 - 372.76
diagonal:  Solving for p_rgh, Initial residual = 0, Final residual = 0, No Iterations 0
PIMPLE: Iteration 3
MULES: Solving for alpha.steam
MULES: Solving for alpha.water
steam fraction, min, max = 0.9901484953 0.9901484953 0.9901484953
water fraction, min, max = 0.009851504679 0.009851504679 0.009851504679
Phase-sum volume fraction, min, max = 1 1 1
MULES: Solving for alpha.steam
MULES: Solving for alpha.water
steam fraction, min, max = 0.9901484971 0.9901484971 0.9901484971
water fraction, min, max = 0.009851502906 0.009851502906 0.009851502906
Phase-sum volume fraction, min, max = 1 1 1
MULES: Solving for alpha.steam
MULES: Solving for alpha.water
steam fraction, min, max = 0.9901484989 0.9901484989 0.9901484989
water fraction, min, max = 0.009851501134 0.009851501134 0.009851501134
Phase-sum volume fraction, min, max = 1 1 1
Constructing momentum equations
thermalPhaseChange:Tsat.steam_water: min = 372.76, mean = 372.76, max = 372.76
thermalPhaseChange:Tf.steam_water: min = 372.76, mean = 372.76, max = 372.76
thermalPhaseChange:dmdtf.steam_water: min = 0.001094083599, mean = 0.001094083599, max = 0.001094083599, integral = 0.001094083599
diagonal:  Solving for e.steam, Initial residual = 0, Final residual = 0, No Iterations 0
diagonal:  Solving for e.water, Initial residual = 0, Final residual = 0, No Iterations 0
steam min/max T 373.2293573 - 373.2293573
water min/max T 372.76 - 372.76
diagonal:  Solving for p_rgh, Initial residual = 0, Final residual = 0, No Iterations 0
PIMPLE: Iteration 4
MULES: Solving for alpha.steam
MULES: Solving for alpha.water
steam fraction, min, max = 0.9901484953 0.9901484953 0.9901484953
water fraction, min, max = 0.009851504676 0.009851504676 0.009851504676
Phase-sum volume fraction, min, max = 1 1 1
MULES: Solving for alpha.steam
MULES: Solving for alpha.water
steam fraction, min, max = 0.9901484971 0.9901484971 0.9901484971
water fraction, min, max = 0.0098515029 0.0098515029 0.0098515029
Phase-sum volume fraction, min, max = 1 1 1
MULES: Solving for alpha.steam
MULES: Solving for alpha.water
steam fraction, min, max = 0.9901484989 0.9901484989 0.9901484989
water fraction, min, max = 0.009851501125 0.009851501125 0.009851501125
Phase-sum volume fraction, min, max = 1 1 1
Constructing momentum equations
thermalPhaseChange:Tsat.steam_water: min = 372.76, mean = 372.76, max = 372.76
thermalPhaseChange:Tf.steam_water: min = 372.76, mean = 372.76, max = 372.76
thermalPhaseChange:dmdtf.steam_water: min = 0.001094086559, mean = 0.001094086559, max = 0.001094086559, integral = 0.001094086559
diagonal:  Solving for e.steam, Initial residual = 0, Final residual = 0, No Iterations 0
diagonal:  Solving for e.water, Initial residual = 0, Final residual = 0, No Iterations 0
steam min/max T 373.2293573 - 373.2293573
water min/max T 372.76 - 372.76
diagonal:  Solving for p_rgh, Initial residual = 0, Final residual = 0, No Iterations 0
PIMPLE: Iteration 5
MULES: Solving for alpha.steam
MULES: Solving for alpha.water
steam fraction, min, max = 0.9901484953 0.9901484953 0.9901484953
water fraction, min, max = 0.009851504676 0.009851504676 0.009851504676
Phase-sum volume fraction, min, max = 1 1 1
MULES: Solving for alpha.steam
MULES: Solving for alpha.water
steam fraction, min, max = 0.9901484971 0.9901484971 0.9901484971
water fraction, min, max = 0.0098515029 0.0098515029 0.0098515029
Phase-sum volume fraction, min, max = 1 1 1
MULES: Solving for alpha.steam
MULES: Solving for alpha.water
steam fraction, min, max = 0.9901484989 0.9901484989 0.9901484989
water fraction, min, max = 0.009851501125 0.009851501125 0.009851501125
Phase-sum volume fraction, min, max = 1 1 1
Constructing momentum equations
thermalPhaseChange:Tsat.steam_water: min = 372.76, mean = 372.76, max = 372.76
thermalPhaseChange:Tf.steam_water: min = 372.76, mean = 372.76, max = 372.76
thermalPhaseChange:dmdtf.steam_water: min = 0.001094086574, mean = 0.001094086574, max = 0.001094086574, integral = 0.001094086574
diagonal:  Solving for e.steam, Initial residual = 0, Final residual = 0, No Iterations 0
diagonal:  Solving for e.water, Initial residual = 0, Final residual = 0, No Iterations 0
steam min/max T 373.2293573 - 373.2293573
water min/max T 372.76 - 372.76
diagonal:  Solving for p_rgh, Initial residual = 0, Final residual = 0, No Iterations 0
ExecutionTime = 3.153331 s  ClockTime = 22 s

Courant Number mean: 0 max: 0
Time = 0.995s

PIMPLE: Iteration 1
MULES: Solving for alpha.steam
MULES: Solving for alpha.water
steam fraction, min, max = 0.9901485007 0.9901485007 0.9901485007
water fraction, min, max = 0.009851499349 0.009851499349 0.009851499349
Phase-sum volume fraction, min, max = 1 1 1
MULES: Solving for alpha.steam
MULES: Solving for alpha.water
steam fraction, min, max = 0.9901485024 0.9901485024 0.9901485024
water fraction, min, max = 0.009851497573 0.009851497573 0.009851497573
Phase-sum volume fraction, min, max = 1 1 1
MULES: Solving for alpha.steam
MULES: Solving for alpha.water
steam fraction, min, max = 0.9901485042 0.9901485042 0.9901485042
water fraction, min, max = 0.009851495798 0.009851495798 0.009851495798
Phase-sum volume fraction, min, max = 1 1 1
Constructing momentum equations
thermalPhaseChange:Tsat.steam_water: min = 372.76, mean = 372.76, max = 372.76
thermalPhaseChange:Tf.steam_water: min = 372.76, mean = 372.76, max = 372.76
thermalPhaseChange:dmdtf.steam_water: min = 0.001094085983, mean = 0.001094085983, max = 0.001094085983, integral = 0.001094085983
diagonal:  Solving for e.steam, Initial residual = 0, Final residual = 0, No Iterations 0
diagonal:  Solving for e.water, Initial residual = 0, Final residual = 0, No Iterations 0
steam min/max T 373.2189362 - 373.2189362
water min/max T 372.76 - 372.76
diagonal:  Solving for p_rgh, Initial residual = 0, Final residual = 0, No Iterations 0
PIMPLE: Iteration 2
MULES: Solving for alpha.steam
MULES: Solving for alpha.water
steam fraction, min, max = 0.9901485007 0.9901485007 0.9901485007
water fraction, min, max = 0.009851499349 0.009851499349 0.009851499349
Phase-sum volume fraction, min, max = 1 1 1
MULES: Solving for alpha.steam
MULES: Solving for alpha.water
steam fraction, min, max = 0.9901485024 0.9901485024 0.9901485024
water fraction, min, max = 0.009851497573 0.009851497573 0.009851497573
Phase-sum volume fraction, min, max = 1 1 1
MULES: Solving for alpha.steam
MULES: Solving for alpha.water
steam fraction, min, max = 0.9901485042 0.9901485042 0.9901485042
water fraction, min, max = 0.009851495798 0.009851495798 0.009851495798
Phase-sum volume fraction, min, max = 1 1 1
Constructing momentum equations
thermalPhaseChange:Tsat.steam_water: min = 372.76, mean = 372.76, max = 372.76
thermalPhaseChange:Tf.steam_water: min = 372.76, mean = 372.76, max = 372.76
thermalPhaseChange:dmdtf.steam_water: min = 0.00106979404, mean = 0.00106979404, max = 0.00106979404, integral = 0.00106979404
diagonal:  Solving for e.steam, Initial residual = 0, Final residual = 0, No Iterations 0
diagonal:  Solving for e.water, Initial residual = 0, Final residual = 0, No Iterations 0
steam min/max T 373.2197129 - 373.2197129
water min/max T 372.76 - 372.76
diagonal:  Solving for p_rgh, Initial residual = 0, Final residual = 0, No Iterations 0
PIMPLE: Iteration 3
MULES: Solving for alpha.steam
MULES: Solving for alpha.water
steam fraction, min, max = 0.9901485006 0.9901485006 0.9901485006
water fraction, min, max = 0.009851499388 0.009851499388 0.009851499388
Phase-sum volume fraction, min, max = 1 1 1
MULES: Solving for alpha.steam
MULES: Solving for alpha.water
steam fraction, min, max = 0.9901485023 0.9901485023 0.9901485023
water fraction, min, max = 0.009851497652 0.009851497652 0.009851497652
Phase-sum volume fraction, min, max = 1 1 1
MULES: Solving for alpha.steam
MULES: Solving for alpha.water
steam fraction, min, max = 0.9901485041 0.9901485041 0.9901485041
water fraction, min, max = 0.009851495916 0.009851495916 0.009851495916
Phase-sum volume fraction, min, max = 1 1 1
Constructing momentum equations
thermalPhaseChange:Tsat.steam_water: min = 372.76, mean = 372.76, max = 372.76
thermalPhaseChange:Tf.steam_water: min = 372.76, mean = 372.76, max = 372.76
thermalPhaseChange:dmdtf.steam_water: min = 0.00107160473, mean = 0.00107160473, max = 0.00107160473, integral = 0.00107160473
diagonal:  Solving for e.steam, Initial residual = 0, Final residual = 0, No Iterations 0
diagonal:  Solving for e.water, Initial residual = 0, Final residual = 0, No Iterations 0
steam min/max T 373.2197142 - 373.2197142
water min/max T 372.76 - 372.76
diagonal:  Solving for p_rgh, Initial residual = 0, Final residual = 0, No Iterations 0
PIMPLE: Iteration 4
MULES: Solving for alpha.steam
MULES: Solving for alpha.water
steam fraction, min, max = 0.9901485006 0.9901485006 0.9901485006
water fraction, min, max = 0.009851499386 0.009851499386 0.009851499386
Phase-sum volume fraction, min, max = 1 1 1
MULES: Solving for alpha.steam
MULES: Solving for alpha.water
steam fraction, min, max = 0.9901485024 0.9901485024 0.9901485024
water fraction, min, max = 0.009851497646 0.009851497646 0.009851497646
Phase-sum volume fraction, min, max = 1 1 1
MULES: Solving for alpha.steam
MULES: Solving for alpha.water
steam fraction, min, max = 0.9901485041 0.9901485041 0.9901485041
water fraction, min, max = 0.009851495907 0.009851495907 0.009851495907
Phase-sum volume fraction, min, max = 1 1 1
Constructing momentum equations
thermalPhaseChange:Tsat.steam_water: min = 372.76, mean = 372.76, max = 372.76
thermalPhaseChange:Tf.steam_water: min = 372.76, mean = 372.76, max = 372.76
thermalPhaseChange:dmdtf.steam_water: min = 0.00107160763, mean = 0.00107160763, max = 0.00107160763, integral = 0.00107160763
diagonal:  Solving for e.steam, Initial residual = 0, Final residual = 0, No Iterations 0
diagonal:  Solving for e.water, Initial residual = 0, Final residual = 0, No Iterations 0
steam min/max T 373.2197142 - 373.2197142
water min/max T 372.76 - 372.76
diagonal:  Solving for p_rgh, Initial residual = 0, Final residual = 0, No Iterations 0
PIMPLE: Iteration 5
MULES: Solving for alpha.steam
MULES: Solving for alpha.water
steam fraction, min, max = 0.9901485006 0.9901485006 0.9901485006
water fraction, min, max = 0.009851499386 0.009851499386 0.009851499386
Phase-sum volume fraction, min, max = 1 1 1
MULES: Solving for alpha.steam
MULES: Solving for alpha.water
steam fraction, min, max = 0.9901485024 0.9901485024 0.9901485024
water fraction, min, max = 0.009851497646 0.009851497646 0.009851497646
Phase-sum volume fraction, min, max = 1 1 1
MULES: Solving for alpha.steam
MULES: Solving for alpha.water
steam fraction, min, max = 0.9901485041 0.9901485041 0.9901485041
water fraction, min, max = 0.009851495907 0.009851495907 0.009851495907
Phase-sum volume fraction, min, max = 1 1 1
Constructing momentum equations
thermalPhaseChange:Tsat.steam_water: min = 372.76, mean = 372.76, max = 372.76
thermalPhaseChange:Tf.steam_water: min = 372.76, mean = 372.76, max = 372.76
thermalPhaseChange:dmdtf.steam_water: min = 0.001071607645, mean = 0.001071607645, max = 0.001071607645, integral = 0.001071607645
diagonal:  Solving for e.steam, Initial residual = 0, Final residual = 0, No Iterations 0
diagonal:  Solving for e.water, Initial residual = 0, Final residual = 0, No Iterations 0
steam min/max T 373.2197142 - 373.2197142
water min/max T 372.76 - 372.76
diagonal:  Solving for p_rgh, Initial residual = 0, Final residual = 0, No Iterations 0
ExecutionTime = 3.167089 s  ClockTime = 22 s

Courant Number mean: 0 max: 0
Time = 1s

PIMPLE: Iteration 1
MULES: Solving for alpha.steam
MULES: Solving for alpha.water
steam fraction, min, max = 0.9901485058 0.9901485058 0.9901485058
water fraction, min, max = 0.009851494168 0.009851494168 0.009851494168
Phase-sum volume fraction, min, max = 1 1 1
MULES: Solving for alpha.steam
MULES: Solving for alpha.water
steam fraction, min, max = 0.9901485076 0.9901485076 0.9901485076
water fraction, min, max = 0.009851492429 0.009851492429 0.009851492429
Phase-sum volume fraction, min, max = 1 1 1
MULES: Solving for alpha.steam
MULES: Solving for alpha.water
steam fraction, min, max = 0.9901485093 0.9901485093 0.9901485093
water fraction, min, max = 0.00985149069 0.00985149069 0.00985149069
Phase-sum volume fraction, min, max = 1 1 1
Constructing momentum equations
thermalPhaseChange:Tsat.steam_water: min = 372.76, mean = 372.76, max = 372.76
thermalPhaseChange:Tf.steam_water: min = 372.76, mean = 372.76, max = 372.76
thermalPhaseChange:dmdtf.steam_water: min = 0.001071607078, mean = 0.001071607078, max = 0.001071607078, integral = 0.001071607078
diagonal:  Solving for e.steam, Initial residual = 0, Final residual = 0, No Iterations 0
diagonal:  Solving for e.water, Initial residual = 0, Final residual = 0, No Iterations 0
steam min/max T 373.2095074 - 373.2095074
water min/max T 372.76 - 372.76
diagonal:  Solving for p_rgh, Initial residual = 0, Final residual = 0, No Iterations 0
PIMPLE: Iteration 2
MULES: Solving for alpha.steam
MULES: Solving for alpha.water
steam fraction, min, max = 0.9901485058 0.9901485058 0.9901485058
water fraction, min, max = 0.009851494168 0.009851494168 0.009851494168
Phase-sum volume fraction, min, max = 1 1 1
MULES: Solving for alpha.steam
MULES: Solving for alpha.water
steam fraction, min, max = 0.9901485076 0.9901485076 0.9901485076
water fraction, min, max = 0.009851492429 0.009851492429 0.009851492429
Phase-sum volume fraction, min, max = 1 1 1
MULES: Solving for alpha.steam
MULES: Solving for alpha.water
steam fraction, min, max = 0.9901485093 0.9901485093 0.9901485093
water fraction, min, max = 0.00985149069 0.00985149069 0.00985149069
Phase-sum volume fraction, min, max = 1 1 1
Constructing momentum equations
thermalPhaseChange:Tsat.steam_water: min = 372.76, mean = 372.76, max = 372.76
thermalPhaseChange:Tf.steam_water: min = 372.76, mean = 372.76, max = 372.76
thermalPhaseChange:dmdtf.steam_water: min = 0.001047814626, mean = 0.001047814626, max = 0.001047814626, integral = 0.001047814626
diagonal:  Solving for e.steam, Initial residual = 0, Final residual = 0, No Iterations 0
diagonal:  Solving for e.water, Initial residual = 0, Final residual = 0, No Iterations 0
steam min/max T 373.2102681 - 373.2102681
water min/max T 372.76 - 372.76
diagonal:  Solving for p_rgh, Initial residual = 0, Final residual = 0, No Iterations 0
PIMPLE: Iteration 3
MULES: Solving for alpha.steam
MULES: Solving for alpha.water
steam fraction, min, max = 0.9901485058 0.9901485058 0.9901485058
water fraction, min, max = 0.009851494207 0.009851494207 0.009851494207
Phase-sum volume fraction, min, max = 1 1 1
MULES: Solving for alpha.steam
MULES: Solving for alpha.water
steam fraction, min, max = 0.9901485075 0.9901485075 0.9901485075
water fraction, min, max = 0.009851492506 0.009851492506 0.009851492506
Phase-sum volume fraction, min, max = 1 1 1
MULES: Solving for alpha.steam
MULES: Solving for alpha.water
steam fraction, min, max = 0.9901485092 0.9901485092 0.9901485092
water fraction, min, max = 0.009851490806 0.009851490806 0.009851490806
Phase-sum volume fraction, min, max = 1 1 1
Constructing momentum equations
thermalPhaseChange:Tsat.steam_water: min = 372.76, mean = 372.76, max = 372.76
thermalPhaseChange:Tf.steam_water: min = 372.76, mean = 372.76, max = 372.76
thermalPhaseChange:dmdtf.steam_water: min = 0.001049588051, mean = 0.001049588051, max = 0.001049588051, integral = 0.001049588051
diagonal:  Solving for e.steam, Initial residual = 0, Final residual = 0, No Iterations 0
diagonal:  Solving for e.water, Initial residual = 0, Final residual = 0, No Iterations 0
steam min/max T 373.2102694 - 373.2102694
water min/max T 372.76 - 372.76
diagonal:  Solving for p_rgh, Initial residual = 0, Final residual = 0, No Iterations 0
PIMPLE: Iteration 4
MULES: Solving for alpha.steam
MULES: Solving for alpha.water
steam fraction, min, max = 0.9901485058 0.9901485058 0.9901485058
water fraction, min, max = 0.009851494204 0.009851494204 0.009851494204
Phase-sum volume fraction, min, max = 1 1 1
MULES: Solving for alpha.steam
MULES: Solving for alpha.water
steam fraction, min, max = 0.9901485075 0.9901485075 0.9901485075
water fraction, min, max = 0.009851492501 0.009851492501 0.009851492501
Phase-sum volume fraction, min, max = 1 1 1
MULES: Solving for alpha.steam
MULES: Solving for alpha.water
steam fraction, min, max = 0.9901485092 0.9901485092 0.9901485092
water fraction, min, max = 0.009851490797 0.009851490797 0.009851490797
Phase-sum volume fraction, min, max = 1 1 1
Constructing momentum equations
thermalPhaseChange:Tsat.steam_water: min = 372.76, mean = 372.76, max = 372.76
thermalPhaseChange:Tf.steam_water: min = 372.76, mean = 372.76, max = 372.76
thermalPhaseChange:dmdtf.steam_water: min = 0.001049590892, mean = 0.001049590892, max = 0.001049590892, integral = 0.001049590892
diagonal:  Solving for e.steam, Initial residual = 0, Final residual = 0, No Iterations 0
diagonal:  Solving for e.water, Initial residual = 0, Final residual = 0, No Iterations 0
steam min/max T 373.2102694 - 373.2102694
water min/max T 372.76 - 372.76
diagonal:  Solving for p_rgh, Initial residual = 0, Final residual = 0, No Iterations 0
PIMPLE: Iteration 5
MULES: Solving for alpha.steam
MULES: Solving for alpha.water
steam fraction, min, max = 0.9901485058 0.9901485058 0.9901485058
water fraction, min, max = 0.009851494204 0.009851494204 0.009851494204
Phase-sum volume fraction, min, max = 1 1 1
MULES: Solving for alpha.steam
MULES: Solving for alpha.water
steam fraction, min, max = 0.9901485075 0.9901485075 0.9901485075
water fraction, min, max = 0.009851492501 0.009851492501 0.009851492501
Phase-sum volume fraction, min, max = 1 1 1
MULES: Solving for alpha.steam
MULES: Solving for alpha.water
steam fraction, min, max = 0.9901485092 0.9901485092 0.9901485092
water fraction, min, max = 0.009851490797 0.009851490797 0.009851490797
Phase-sum volume fraction, min, max = 1 1 1
Constructing momentum equations
thermalPhaseChange:Tsat.steam_water: min = 372.76, mean = 372.76, max = 372.76
thermalPhaseChange:Tf.steam_water: min = 372.76, mean = 372.76, max = 372.76
thermalPhaseChange:dmdtf.steam_water: min = 0.001049590906, mean = 0.001049590906, max = 0.001049590906, integral = 0.001049590906
diagonal:  Solving for e.steam, Initial residual = 0, Final residual = 0, No Iterations 0
diagonal:  Solving for e.water, Initial residual = 0, Final residual = 0, No Iterations 0
steam min/max T 373.2102694 - 373.2102694
water min/max T 372.76 - 372.76
diagonal:  Solving for p_rgh, Initial residual = 0, Final residual = 0, No Iterations 0
ExecutionTime = 3.183569 s  ClockTime = 22 s

End

