/*---------------------------------------------------------------------------*\
  =========                 |
  \\      /  F ield         | OpenFOAM: The Open Source CFD Toolbox
   \\    /   O peration     | Website:  https://openfoam.org
    \\  /    A nd           | Version:  12
     \\/     M anipulation  |
\*---------------------------------------------------------------------------*/
Build  : 12-cc05c1b03c38
Exec   : Test-fvMeshTools
Date   : Oct 10 2024
Time   : 23:13:10
Host   : "DESKTOP-KBPC6IC"
PID    : 3826
I/O    : uncollated
Case   : /home/as/openfoam/OpenFOAM-12/test/fvMeshTools/cavity
nProcs : 1
sigFpe : Enabling floating point exception trapping (FOAM_SIGFPE).
fileModificationChecking : Monitoring run-time modified files using timeStampMaster (fileModificationSkew 10)
allowSystemOperations : Allowing user-supplied system call operations

// * * * * * * * * * * * * * * * * * * * * * * * * * * * * * * * * * * * * * //
Create time

Create mesh for time = 0

Reading geometric fields

Reading volScalarField p
Reading volVectorField U
Reading pointVectorField pointDisplacement
Inserted patch myWall type wall at index 4
Writing mesh with added patch to 0.005
Removing patch zeroSizedPatch
Writing mesh with removed patch to 0.01
End

