/*---------------------------------------------------------------------------*\
  =========                 |
  \\      /  F ield         | OpenFOAM: The Open Source CFD Toolbox
   \\    /   O peration     | Website:  https://openfoam.org
    \\  /    A nd           | Version:  12
     \\/     M anipulation  |
\*---------------------------------------------------------------------------*/
Build  : 12-cc05c1b03c38
Exec   : checkMesh -parallel
Date   : Oct 10 2024
Time   : 23:13:15
Host   : "DESKTOP-KBPC6IC"
PID    : 3860
I/O    : uncollated
Case   : /home/as/openfoam/OpenFOAM-12/test/fvMeshTools/cavity
nProcs : 3
Slaves : 
2
(
"DESKTOP-KBPC6IC.3861"
"DESKTOP-KBPC6IC.3862"
)

Pstream initialised with:
    floatTransfer      : false
    nProcsSimpleSum    : 0
    commsType          : nonBlocking
    polling iterations : 0
sigFpe : Enabling floating point exception trapping (FOAM_SIGFPE).
fileModificationChecking : Monitoring run-time modified files using timeStampMaster (fileModificationSkew 10)
allowSystemOperations : Allowing user-supplied system call operations

// * * * * * * * * * * * * * * * * * * * * * * * * * * * * * * * * * * * * * //
Create time

Create polyMesh for time = 0

Time = 0s

Mesh stats
    points:           956
    internal points:  0
    faces:            1675
    internal faces:   725
    cells:            400
    faces per cell:   6
    boundary patches: 6
    point zones:      0
    face zones:       0
    cell zones:       0

Overall number of cells of each type:
    hexahedra:     400
    prisms:        0
    wedges:        0
    pyramids:      0
    tet wedges:    0
    tetrahedra:    0
    polyhedra:     0

Checking topology...
    Boundary definition OK.
    Cell to face addressing OK.
    Point usage OK.
    Upper triangular ordering OK.
    Face vertices OK.
    Number of regions: 1 (OK).

Checking basic patch addressing...
    Patch               Faces    Points   
    zeroSizedPatch      0        0        
    movingWall          20       44       
    fixedWalls          60       126      
    frontAndBack        800      956      

Checking geometry...
    Overall domain bounding box (0 0 0) (0.1 0.1 0.01)
    Mesh has 2 geometric (non-empty/wedge) directions (1 1 0)
    Mesh has 2 solution (non-empty) directions (1 1 0)
    All edges aligned with or perpendicular to non-empty directions.
    Max cell openness = 1.35525e-16 OK.
    Max aspect ratio = 1 OK.
    Minimum face area = 2.5e-05. Maximum face area = 5e-05.  Face area magnitudes OK.
    Min volume = 2.5e-07. Max volume = 2.5e-07.  Total volume = 0.0001.  Cell volumes OK.
    Mesh non-orthogonality Max: 0 average: 0
    Non-orthogonality check OK.
    Face pyramids OK.
    Max skewness = 1.66533e-14 OK.
    Coupled point location match (average 0) OK.

Mesh OK.

Time = 0.005s

Mesh stats
    points:           956
    internal points:  0
    faces:            1675
    internal faces:   725
    cells:            400
    faces per cell:   6
    boundary patches: 7
    point zones:      0
    face zones:       0
    cell zones:       0

Overall number of cells of each type:
    hexahedra:     400
    prisms:        0
    wedges:        0
    pyramids:      0
    tet wedges:    0
    tetrahedra:    0
    polyhedra:     0

Checking topology...
    Boundary definition OK.
    Cell to face addressing OK.
    Point usage OK.
    Upper triangular ordering OK.
    Face vertices OK.
    Number of regions: 1 (OK).

Checking basic patch addressing...
    Patch               Faces    Points   
    zeroSizedPatch      0        0        
    movingWall          20       44       
    fixedWalls          60       126      
    frontAndBack        800      956      
    myWall              0        0        

Checking geometry...
    Overall domain bounding box (0 0 0) (0.1 0.1 0.01)
    Mesh has 2 geometric (non-empty/wedge) directions (1 1 0)
    Mesh has 2 solution (non-empty) directions (1 1 0)
    All edges aligned with or perpendicular to non-empty directions.
    Max cell openness = 1.35525e-16 OK.
    Max aspect ratio = 1 OK.
    Minimum face area = 2.5e-05. Maximum face area = 5e-05.  Face area magnitudes OK.
    Min volume = 2.5e-07. Max volume = 2.5e-07.  Total volume = 0.0001.  Cell volumes OK.
    Mesh non-orthogonality Max: 0 average: 0
    Non-orthogonality check OK.
    Face pyramids OK.
    Max skewness = 1.66533e-14 OK.
    Coupled point location match (average 0) OK.

Mesh OK.

Time = 0.01s

Mesh stats
    points:           956
    internal points:  0
    faces:            1675
    internal faces:   725
    cells:            400
    faces per cell:   6
    boundary patches: 6
    point zones:      0
    face zones:       0
    cell zones:       0

Overall number of cells of each type:
    hexahedra:     400
    prisms:        0
    wedges:        0
    pyramids:      0
    tet wedges:    0
    tetrahedra:    0
    polyhedra:     0

Checking topology...
    Boundary definition OK.
    Cell to face addressing OK.
    Point usage OK.
    Upper triangular ordering OK.
    Face vertices OK.
    Number of regions: 1 (OK).

Checking basic patch addressing...
    Patch               Faces    Points   
    movingWall          20       44       
    fixedWalls          60       126      
    frontAndBack        800      956      
    myWall              0        0        

Checking geometry...
    Overall domain bounding box (0 0 0) (0.1 0.1 0.01)
    Mesh has 2 geometric (non-empty/wedge) directions (1 1 0)
    Mesh has 2 solution (non-empty) directions (1 1 0)
    All edges aligned with or perpendicular to non-empty directions.
    Max cell openness = 1.35525e-16 OK.
    Max aspect ratio = 1 OK.
    Minimum face area = 2.5e-05. Maximum face area = 5e-05.  Face area magnitudes OK.
    Min volume = 2.5e-07. Max volume = 2.5e-07.  Total volume = 0.0001.  Cell volumes OK.
    Mesh non-orthogonality Max: 0 average: 0
    Non-orthogonality check OK.
    Face pyramids OK.
    Max skewness = 1.66533e-14 OK.
    Coupled point location match (average 0) OK.

Mesh OK.

Time = 0.015s

Mesh stats
    points:           956
    internal points:  0
    faces:            1675
    internal faces:   725
    cells:            400
    faces per cell:   6
    boundary patches: 7
    point zones:      0
    face zones:       0
    cell zones:       0

Overall number of cells of each type:
    hexahedra:     400
    prisms:        0
    wedges:        0
    pyramids:      0
    tet wedges:    0
    tetrahedra:    0
    polyhedra:     0

Checking topology...
    Boundary definition OK.
    Cell to face addressing OK.
    Point usage OK.
    Upper triangular ordering OK.
    Face vertices OK.
    Number of regions: 1 (OK).

Checking basic patch addressing...
    Patch               Faces    Points   
    movingWall          20       44       
    fixedWalls          60       126      
    frontAndBack        800      956      
    myWall              0        0        

Checking geometry...
    Overall domain bounding box (0 0 0) (0.1 0.1 0.01)
    Mesh has 2 geometric (non-empty/wedge) directions (1 1 0)
    Mesh has 2 solution (non-empty) directions (1 1 0)
    All edges aligned with or perpendicular to non-empty directions.
    Max cell openness = 1.35525e-16 OK.
    Max aspect ratio = 1 OK.
    Minimum face area = 2.5e-05. Maximum face area = 5e-05.  Face area magnitudes OK.
    Min volume = 2.5e-07. Max volume = 2.5e-07.  Total volume = 0.0001.  Cell volumes OK.
    Mesh non-orthogonality Max: 0 average: 0
    Non-orthogonality check OK.
    Face pyramids OK.
    Max skewness = 1.66533e-14 OK.
    Coupled point location match (average 0) OK.

Mesh OK.

Time = 0.02s

Mesh stats
    points:           956
    internal points:  0
    faces:            1675
    internal faces:   725
    cells:            400
    faces per cell:   6
    boundary patches: 6
    point zones:      0
    face zones:       0
    cell zones:       0

Overall number of cells of each type:
    hexahedra:     400
    prisms:        0
    wedges:        0
    pyramids:      0
    tet wedges:    0
    tetrahedra:    0
    polyhedra:     0

Checking topology...
    Boundary definition OK.
    Cell to face addressing OK.
    Point usage OK.
    Upper triangular ordering OK.
    Face vertices OK.
    Number of regions: 1 (OK).

Checking basic patch addressing...
    Patch               Faces    Points   
    movingWall          20       44       
    fixedWalls          60       126      
    frontAndBack        800      956      
    myWall              0        0        

Checking geometry...
    Overall domain bounding box (0 0 0) (0.1 0.1 0.01)
    Mesh has 2 geometric (non-empty/wedge) directions (1 1 0)
    Mesh has 2 solution (non-empty) directions (1 1 0)
    All edges aligned with or perpendicular to non-empty directions.
    Max cell openness = 1.35525e-16 OK.
    Max aspect ratio = 1 OK.
    Minimum face area = 2.5e-05. Maximum face area = 5e-05.  Face area magnitudes OK.
    Min volume = 2.5e-07. Max volume = 2.5e-07.  Total volume = 0.0001.  Cell volumes OK.
    Mesh non-orthogonality Max: 0 average: 0
    Non-orthogonality check OK.
    Face pyramids OK.
    Max skewness = 1.66533e-14 OK.
    Coupled point location match (average 0) OK.

Mesh OK.

End

Finalising parallel run
