/*---------------------------------------------------------------------------*\
  =========                 |
  \\      /  F ield         | OpenFOAM: The Open Source CFD Toolbox
   \\    /   O peration     | Website:  https://openfoam.org
    \\  /    A nd           | Version:  12
     \\/     M anipulation  |
\*---------------------------------------------------------------------------*/
Build  : 12-cc05c1b03c38
Exec   : foamToVTK
Date   : Oct 15 2024
Time   : 05:56:35
Host   : "DESKTOP-KBPC6IC"
PID    : 237666
I/O    : uncollated
Case   : /home/as/openfoam/OpenFOAM-12/test/fvMeshTools/cavity
nProcs : 1
sigFpe : Enabling floating point exception trapping (FOAM_SIGFPE).
fileModificationChecking : Monitoring run-time modified files using timeStampMaster (fileModificationSkew 10)
allowSystemOperations : Allowing user-supplied system call operations

// * * * * * * * * * * * * * * * * * * * * * * * * * * * * * * * * * * * * * //
Create time

Create mesh for time = 0

Time: 0
    volScalarFields            : p
    volVectorFields            : U
    pointVectorFields          : pointDisplacement

    Internal  : "/home/as/openfoam/OpenFOAM-12/test/fvMeshTools/cavity/VTK/cavity_0.vtk"
    Original cells:400 points:882   Additional cells:0  additional points:0

Combining patches:
    patch 0 zeroSizedPatch
    patch 1 movingWall
    patch 2 fixedWalls
    discarding empty/nonConformal/processor patch 3 frontAndBack
    Patch     : "/home/as/openfoam/OpenFOAM-12/test/fvMeshTools/cavity/VTK/zeroSizedPatch/zeroSizedPatch_0.vtk"
    Patch     : "/home/as/openfoam/OpenFOAM-12/test/fvMeshTools/cavity/VTK/movingWall/movingWall_0.vtk"
    Patch     : "/home/as/openfoam/OpenFOAM-12/test/fvMeshTools/cavity/VTK/fixedWalls/fixedWalls_0.vtk"
End

