/*---------------------------------------------------------------------------*\
  =========                 |
  \\      /  F ield         | OpenFOAM: The Open Source CFD Toolbox
   \\    /   O peration     | Website:  https://openfoam.org
    \\  /    A nd           | Version:  12
     \\/     M anipulation  |
\*---------------------------------------------------------------------------*/
Build  : 12-cc05c1b03c38
Exec   : boundaryFoam
Date   : Oct 15 2024
Time   : 05:52:42
Host   : "DESKTOP-KBPC6IC"
PID    : 213249
I/O    : uncollated
Case   : /home/as/openfoam/OpenFOAM-12/test/boundaryLayer/boundaryWallFunctions
nProcs : 1
sigFpe : Enabling floating point exception trapping (FOAM_SIGFPE).
fileModificationChecking : Monitoring run-time modified files using timeStampMaster (fileModificationSkew 10)
allowSystemOperations : Allowing user-supplied system call operations

// * * * * * * * * * * * * * * * * * * * * * * * * * * * * * * * * * * * * * //
Create time

Create mesh for time = 0

Reading field U

Creating face flux

Selecting viscosity model constant
Selecting turbulence model type RAS
Selecting RAS turbulence model kEpsilon
RAS
{
    model           kEpsilon;
    turbulence      on;
    printCoeffs     on;
    Cmu             0.09;
    C1              1.44;
    C2              1.92;
    C3              0;
    sigmak          1;
    sigmaEps        1.3;
}

No fvModels present
No fvConstraints present
Generating wall data for patch: lowerWall
    Height to first cell centre y0 = 0.000625

Starting time loop

Time = 1s

DICPCG:  Solving for Ux, Initial residual = 0, Final residual = 0, No Iterations 0
DICPCG:  Solving for Uy, Initial residual = 0, Final residual = 0, No Iterations 0
smoothSolver:  Solving for epsilon, Initial residual = 0.980641, Final residual = 3.63908e-08, No Iterations 3
smoothSolver:  Solving for k, Initial residual = 0.999999, Final residual = 5.48432e-07, No Iterations 4
Uncorrected Ubar = 0, pressure gradient = 274.194
Rey = 625, uTau = 0.4, nut+ = 0, nuEff+ = 1, y+ = 25, u+ = 25, k+ = 2.07455e-10, epsilon+ = 2e-12, omega+ = 0.107118
ExecutionTime = 0.014164 s  ClockTime = 0 s

Time = 2s

DICPCG:  Solving for Ux, Initial residual = 1, Final residual = 1.42856e-07, No Iterations 3
DICPCG:  Solving for Uy, Initial residual = 0, Final residual = 0, No Iterations 0
smoothSolver:  Solving for epsilon, Initial residual = 0.996676, Final residual = 5.1675e-08, No Iterations 3
smoothSolver:  Solving for k, Initial residual = 0.998121, Final residual = 7.72113e-08, No Iterations 4
Uncorrected Ubar = 29.6986, pressure gradient = -265.93
Rey = 203.557, uTau = 0.228277, nut+ = 0, nuEff+ = 1, y+ = 14.2673, u+ = 14.2673, k+ = 2.89435e-10, epsilon+ = 6.25839e-12, omega+ = 0.240253
ExecutionTime = 0.015735 s  ClockTime = 0 s

Time = 3s

DICPCG:  Solving for Ux, Initial residual = 0.913772, Final residual = 1.37873e-07, No Iterations 3
DICPCG:  Solving for Uy, Initial residual = 0, Final residual = 0, No Iterations 0
smoothSolver:  Solving for epsilon, Initial residual = 0.558396, Final residual = 1.07261e-08, No Iterations 2
smoothSolver:  Solving for k, Initial residual = 0.856547, Final residual = 1.71723e-07, No Iterations 4
Uncorrected Ubar = -9.22768, pressure gradient = 261.28
Rey = 556.533, uTau = 0.377455, nut+ = 0, nuEff+ = 1, y+ = 23.5909, u+ = 23.5909, k+ = 4.26859e-11, epsilon+ = 3.80439e-13, omega+ = 0.099028
ExecutionTime = 0.017988 s  ClockTime = 0 s

Time = 4s

DICPCG:  Solving for Ux, Initial residual = 0.987436, Final residual = 1.36114e-07, No Iterations 3
DICPCG:  Solving for Uy, Initial residual = 0, Final residual = 0, No Iterations 0
smoothSolver:  Solving for epsilon, Initial residual = 0.535609, Final residual = 2.22704e-08, No Iterations 2
smoothSolver:  Solving for k, Initial residual = 0.542578, Final residual = 2.89145e-07, No Iterations 4
Uncorrected Ubar = 28.7817, pressure gradient = -253.701
Rey = 226.692, uTau = 0.2409, nut+ = 0, nuEff+ = 1, y+ = 15.0563, u+ = 15.0563, k+ = 4.1613e-11, epsilon+ = 9.24559e-13, omega+ = 0.246867
ExecutionTime = 0.021204 s  ClockTime = 0 s

Time = 5s

DICPCG:  Solving for Ux, Initial residual = 0.903763, Final residual = 1.36911e-07, No Iterations 3
DICPCG:  Solving for Uy, Initial residual = 0, Final residual = 0, No Iterations 0
smoothSolver:  Solving for epsilon, Initial residual = 0.558474, Final residual = 3.12812e-08, No Iterations 2
smoothSolver:  Solving for k, Initial residual = 0.289978, Final residual = 3.77748e-07, No Iterations 4
Uncorrected Ubar = -8.33533, pressure gradient = 249.042
Rey = 505.221, uTau = 0.359634, nut+ = 0, nuEff+ = 1, y+ = 22.4771, u+ = 22.4771, k+ = 7.01074e-12, epsilon+ = 7.39147e-14, omega+ = 0.117145
ExecutionTime = 0.022509 s  ClockTime = 0 s

Time = 6s

DICPCG:  Solving for Ux, Initial residual = 0.977069, Final residual = 1.3612e-07, No Iterations 3
DICPCG:  Solving for Uy, Initial residual = 0, Final residual = 0, No Iterations 0
smoothSolver:  Solving for epsilon, Initial residual = 0.542868, Final residual = 1.81421e-07, No Iterations 2
smoothSolver:  Solving for k, Initial residual = 0.199298, Final residual = 1.73308e-07, No Iterations 4
Uncorrected Ubar = 27.908, pressure gradient = -241.984
Rey = 235.625, uTau = 0.245601, nut+ = 0, nuEff+ = 1, y+ = 15.3501, u+ = 15.3501, k+ = 5.78548e-12, epsilon+ = 1.27595e-13, omega+ = 0.245048
ExecutionTime = 0.023678 s  ClockTime = 0 s

Time = 7s

DICPCG:  Solving for Ux, Initial residual = 0.893616, Final residual = 1.33824e-07, No Iterations 3
DICPCG:  Solving for Uy, Initial residual = 0, Final residual = 0, No Iterations 0
smoothSolver:  Solving for epsilon, Initial residual = 0.477015, Final residual = 1.80554e-07, No Iterations 2
smoothSolver:  Solving for k, Initial residual = 0.0961248, Final residual = 1.81276e-07, No Iterations 4
Uncorrected Ubar = -7.48392, pressure gradient = 237.413
Rey = 466.919, uTau = 0.345733, nut+ = 0, nuEff+ = 1, y+ = 21.6083, u+ = 21.6083, k+ = 1.12521e-12, epsilon+ = 1.25057e-14, omega+ = 0.12349
ExecutionTime = 0.025983 s  ClockTime = 0 s

Time = 8s

DICPCG:  Solving for Ux, Initial residual = 0.967732, Final residual = 1.36364e-07, No Iterations 3
DICPCG:  Solving for Uy, Initial residual = 0, Final residual = 0, No Iterations 0
smoothSolver:  Solving for epsilon, Initial residual = 0.415115, Final residual = 8.76653e-07, No Iterations 2
smoothSolver:  Solving for k, Initial residual = 0.170176, Final residual = 6.22688e-07, No Iterations 3
Uncorrected Ubar = 27.0754, pressure gradient = -230.782
Rey = 235.992, uTau = 0.245793, nut+ = 0, nuEff+ = 1, y+ = 15.362, u+ = 15.362, k+ = 1.08914e-12, epsilon+ = 1.88673e-14, omega+ = 0.192478
ExecutionTime = 0.030197 s  ClockTime = 0 s

Time = 9s

DICPCG:  Solving for Ux, Initial residual = 0.884432, Final residual = 1.31313e-07, No Iterations 3
DICPCG:  Solving for Uy, Initial residual = 0, Final residual = 0, No Iterations 0
smoothSolver:  Solving for epsilon, Initial residual = 0.126888, Final residual = 1.90632e-07, No Iterations 2
smoothSolver:  Solving for k, Initial residual = 0.105344, Final residual = 5.01639e-07, No Iterations 3
Uncorrected Ubar = -6.67179, pressure gradient = 226.348
Rey = 436.537, uTau = 0.334295, nut+ = 0, nuEff+ = 1, y+ = 20.8935, u+ = 20.8935, k+ = 4.86316e-13, epsilon+ = 2.69756e-15, omega+ = 0.0616326
ExecutionTime = 0.032581 s  ClockTime = 0 s

Time = 10s

DICPCG:  Solving for Ux, Initial residual = 0.959014, Final residual = 1.36119e-07, No Iterations 3
DICPCG:  Solving for Uy, Initial residual = 0, Final residual = 0, No Iterations 0
smoothSolver:  Solving for epsilon, Initial residual = 0.293655, Final residual = 6.85365e-07, No Iterations 2
smoothSolver:  Solving for k, Initial residual = 0.156146, Final residual = 1.82351e-07, No Iterations 3
Uncorrected Ubar = 26.2816, pressure gradient = -220.083
Rey = 231.724, uTau = 0.24356, nut+ = 0, nuEff+ = 1, y+ = 15.2225, u+ = 15.2225, k+ = 1.22615e-12, epsilon+ = 7.90731e-15, omega+ = 0.0716545
ExecutionTime = 0.034358 s  ClockTime = 0 s

Time = 11s

DICPCG:  Solving for Ux, Initial residual = 0.875604, Final residual = 1.29303e-07, No Iterations 3
DICPCG:  Solving for Uy, Initial residual = 0, Final residual = 0, No Iterations 0
smoothSolver:  Solving for epsilon, Initial residual = 0.120048, Final residual = 1.63416e-07, No Iterations 2
smoothSolver:  Solving for k, Initial residual = 0.111789, Final residual = 1.47358e-07, No Iterations 3
Uncorrected Ubar = -5.89725, pressure gradient = 215.809
Rey = 411.066, uTau = 0.324396, nut+ = 0, nuEff+ = 1, y+ = 20.2748, u+ = 20.2748, k+ = 8.07396e-13, epsilon+ = 3.36294e-15, omega+ = 0.0462797
ExecutionTime = 0.035929 s  ClockTime = 0 s

Time = 12s

DICPCG:  Solving for Ux, Initial residual = 0.950552, Final residual = 1.35517e-07, No Iterations 3
DICPCG:  Solving for Uy, Initial residual = 0, Final residual = 0, No Iterations 0
smoothSolver:  Solving for epsilon, Initial residual = 0.269374, Final residual = 5.60912e-07, No Iterations 2
smoothSolver:  Solving for k, Initial residual = 0.157189, Final residual = 8.39663e-07, No Iterations 2
Uncorrected Ubar = 25.5248, pressure gradient = -209.871
Rey = 224.973, uTau = 0.239986, nut+ = 0, nuEff+ = 1, y+ = 14.9991, u+ = 14.9991, k+ = 2.23651e-12, epsilon+ = 1.3115e-14, omega+ = 0.065156
ExecutionTime = 0.037772 s  ClockTime = 0 s

Time = 13s

DICPCG:  Solving for Ux, Initial residual = 0.867143, Final residual = 1.2762e-07, No Iterations 3
DICPCG:  Solving for Uy, Initial residual = 0, Final residual = 0, No Iterations 0
smoothSolver:  Solving for epsilon, Initial residual = 0.112817, Final residual = 1.54425e-07, No Iterations 2
smoothSolver:  Solving for k, Initial residual = 0.116006, Final residual = 9.55571e-07, No Iterations 2
Uncorrected Ubar = -5.15863, pressure gradient = 205.769
Rey = 388.859, uTau = 0.315512, nut+ = 0, nuEff+ = 1, y+ = 19.7195, u+ = 19.7195, k+ = 1.58815e-12, epsilon+ = 6.65498e-15, omega+ = 0.0465599
ExecutionTime = 0.039301 s  ClockTime = 0 s

Time = 14s

DICPCG:  Solving for Ux, Initial residual = 0.94238, Final residual = 1.34729e-07, No Iterations 3
DICPCG:  Solving for Uy, Initial residual = 0, Final residual = 0, No Iterations 0
smoothSolver:  Solving for epsilon, Initial residual = 0.254826, Final residual = 5.059e-07, No Iterations 2
smoothSolver:  Solving for k, Initial residual = 0.153539, Final residual = 6.33074e-07, No Iterations 2
Uncorrected Ubar = 24.8033, pressure gradient = -200.127
Rey = 216.9, uTau = 0.235641, nut+ = 0, nuEff+ = 1, y+ = 14.7275, u+ = 14.7275, k+ = 4.32897e-12, epsilon+ = 2.62539e-14, omega+ = 0.0673856
ExecutionTime = 0.041098 s  ClockTime = 0 s

Time = 15s

DICPCG:  Solving for Ux, Initial residual = 0.85858, Final residual = 1.26078e-07, No Iterations 3
DICPCG:  Solving for Uy, Initial residual = 0, Final residual = 0, No Iterations 0
smoothSolver:  Solving for epsilon, Initial residual = 0.111524, Final residual = 1.492e-07, No Iterations 2
smoothSolver:  Solving for k, Initial residual = 0.118109, Final residual = 7.81048e-07, No Iterations 2
Uncorrected Ubar = -4.45429, pressure gradient = 196.2
Rey = 368.987, uTau = 0.307345, nut+ = 0, nuEff+ = 1, y+ = 19.209, u+ = 19.209, k+ = 2.79357e-12, epsilon+ = 1.37928e-14, omega+ = 0.0548593
ExecutionTime = 0.042468 s  ClockTime = 0 s

Time = 16s

DICPCG:  Solving for Ux, Initial residual = 0.930935, Final residual = 1.33345e-07, No Iterations 3
DICPCG:  Solving for Uy, Initial residual = 0, Final residual = 0, No Iterations 0
smoothSolver:  Solving for epsilon, Initial residual = 0.239533, Final residual = 4.65824e-07, No Iterations 2
smoothSolver:  Solving for k, Initial residual = 0.155382, Final residual = 5.82454e-07, No Iterations 2
Uncorrected Ubar = 24.1153, pressure gradient = -190.832
Rey = 208.151, uTau = 0.230839, nut+ = 0, nuEff+ = 1, y+ = 14.4274, u+ = 14.4274, k+ = 7.34457e-12, epsilon+ = 4.75823e-14, omega+ = 0.0719841
ExecutionTime = 0.043409 s  ClockTime = 0 s

Time = 17s

DICPCG:  Solving for Ux, Initial residual = 0.850173, Final residual = 1.24651e-07, No Iterations 3
DICPCG:  Solving for Uy, Initial residual = 0, Final residual = 0, No Iterations 0
smoothSolver:  Solving for epsilon, Initial residual = 0.105578, Final residual = 1.51314e-07, No Iterations 2
smoothSolver:  Solving for k, Initial residual = 0.120675, Final residual = 7.23136e-07, No Iterations 2
Uncorrected Ubar = -3.78265, pressure gradient = 187.079
Rey = 350.898, uTau = 0.299716, nut+ = 0, nuEff+ = 1, y+ = 18.7323, u+ = 18.7323, k+ = 5.37309e-12, epsilon+ = 2.48321e-14, omega+ = 0.0513508
ExecutionTime = 0.048101 s  ClockTime = 0 s

Time = 18s

DICPCG:  Solving for Ux, Initial residual = 0.919113, Final residual = 1.31828e-07, No Iterations 3
DICPCG:  Solving for Uy, Initial residual = 0, Final residual = 0, No Iterations 0
smoothSolver:  Solving for epsilon, Initial residual = 0.233739, Final residual = 4.57121e-07, No Iterations 2
smoothSolver:  Solving for k, Initial residual = 0.150397, Final residual = 5.43573e-07, No Iterations 2
Uncorrected Ubar = 23.4593, pressure gradient = -181.966
Rey = 199.099, uTau = 0.225764, nut+ = 0, nuEff+ = 1, y+ = 14.1102, u+ = 14.1102, k+ = 1.4345e-11, epsilon+ = 9.51252e-14, omega+ = 0.0736804
ExecutionTime = 0.050863 s  ClockTime = 0 s

Time = 19s

DICPCG:  Solving for Ux, Initial residual = 0.841628, Final residual = 1.23259e-07, No Iterations 3
DICPCG:  Solving for Uy, Initial residual = 0, Final residual = 0, No Iterations 0
smoothSolver:  Solving for epsilon, Initial residual = 0.108156, Final residual = 1.50478e-07, No Iterations 2
smoothSolver:  Solving for k, Initial residual = 0.121344, Final residual = 6.91888e-07, No Iterations 2
Uncorrected Ubar = -3.14221, pressure gradient = 178.385
Rey = 334.239, uTau = 0.292515, nut+ = 0, nuEff+ = 1, y+ = 18.2822, u+ = 18.2822, k+ = 8.96483e-12, epsilon+ = 5.11313e-14, omega+ = 0.0633727
ExecutionTime = 0.052636 s  ClockTime = 0 s

Time = 20s

DICPCG:  Solving for Ux, Initial residual = 0.907326, Final residual = 1.30268e-07, No Iterations 3
DICPCG:  Solving for Uy, Initial residual = 0, Final residual = 0, No Iterations 0
smoothSolver:  Solving for epsilon, Initial residual = 0.221674, Final residual = 4.3492e-07, No Iterations 2
smoothSolver:  Solving for k, Initial residual = 0.154333, Final residual = 5.58325e-07, No Iterations 2
Uncorrected Ubar = 22.8338, pressure gradient = -173.509
Rey = 189.972, uTau = 0.220529, nut+ = 0, nuEff+ = 1, y+ = 13.783, u+ = 13.783, k+ = 2.30894e-11, epsilon+ = 1.66054e-13, omega+ = 0.0799087
ExecutionTime = 0.054181 s  ClockTime = 0 s

Time = 21s

DICPCG:  Solving for Ux, Initial residual = 0.832875, Final residual = 1.21873e-07, No Iterations 3
DICPCG:  Solving for Uy, Initial residual = 0, Final residual = 0, No Iterations 0
smoothSolver:  Solving for epsilon, Initial residual = 0.102533, Final residual = 1.57891e-07, No Iterations 2
smoothSolver:  Solving for k, Initial residual = 0.12353, Final residual = 6.91901e-07, No Iterations 2
Uncorrected Ubar = -2.53152, pressure gradient = 170.097
Rey = 318.774, uTau = 0.285668, nut+ = 0, nuEff+ = 1, y+ = 17.8543, u+ = 17.8543, k+ = 1.79462e-11, epsilon+ = 8.63308e-14, omega+ = 0.0534504
ExecutionTime = 0.05579 s  ClockTime = 0 s

Time = 22s

DICPCG:  Solving for Ux, Initial residual = 0.895324, Final residual = 1.28645e-07, No Iterations 3
DICPCG:  Solving for Uy, Initial residual = 0, Final residual = 0, No Iterations 0
smoothSolver:  Solving for epsilon, Initial residual = 0.221109, Final residual = 4.46491e-07, No Iterations 2
smoothSolver:  Solving for k, Initial residual = 0.147084, Final residual = 5.33951e-07, No Iterations 2
Uncorrected Ubar = 22.2374, pressure gradient = -165.444
Rey = 180.911, uTau = 0.215205, nut+ = 0, nuEff+ = 1, y+ = 13.4503, u+ = 13.4503, k+ = 4.83734e-11, epsilon+ = 3.49586e-13, omega+ = 0.0802979
ExecutionTime = 0.057601 s  ClockTime = 0 s

Time = 23s

DICPCG:  Solving for Ux, Initial residual = 0.824076, Final residual = 1.20503e-07, No Iterations 3
DICPCG:  Solving for Uy, Initial residual = 0, Final residual = 0, No Iterations 0
smoothSolver:  Solving for epsilon, Initial residual = 0.108713, Final residual = 1.57357e-07, No Iterations 2
smoothSolver:  Solving for k, Initial residual = 0.123198, Final residual = 6.8217e-07, No Iterations 2
Uncorrected Ubar = -1.94919, pressure gradient = 162.195
Rey = 304.336, uTau = 0.279124, nut+ = 0, nuEff+ = 1, y+ = 17.4452, u+ = 17.4452, k+ = 2.8622e-11, epsilon+ = 1.88971e-13, omega+ = 0.0733591
ExecutionTime = 0.060092 s  ClockTime = 0 s

Time = 24s

DICPCG:  Solving for Ux, Initial residual = 0.883127, Final residual = 1.26972e-07, No Iterations 3
DICPCG:  Solving for Uy, Initial residual = 0, Final residual = 0, No Iterations 0
smoothSolver:  Solving for epsilon, Initial residual = 0.208856, Final residual = 4.24505e-07, No Iterations 2
smoothSolver:  Solving for k, Initial residual = 0.153974, Final residual = 5.73302e-07, No Iterations 2
Uncorrected Ubar = 21.6687, pressure gradient = -157.753
Rey = 172.006, uTau = 0.209842, nut+ = 0, nuEff+ = 1, y+ = 13.1151, u+ = 13.1151, k+ = 7.3152e-11, epsilon+ = 5.8884e-13, omega+ = 0.0894393
ExecutionTime = 0.065034 s  ClockTime = 0 s

Time = 25s

DICPCG:  Solving for Ux, Initial residual = 0.8152, Final residual = 1.1914e-07, No Iterations 3
DICPCG:  Solving for Uy, Initial residual = 0, Final residual = 0, No Iterations 0
smoothSolver:  Solving for epsilon, Initial residual = 0.101738, Final residual = 1.6927e-07, No Iterations 2
smoothSolver:  Solving for k, Initial residual = 0.125541, Final residual = 7.00342e-07, No Iterations 2
Uncorrected Ubar = -1.39393, pressure gradient = 154.661
Rey = 290.799, uTau = 0.272845, nut+ = 0, nuEff+ = 1, y+ = 17.0528, u+ = 17.0528, k+ = 6.14571e-11, epsilon+ = 2.97586e-13, omega+ = 0.053802
ExecutionTime = 0.067191 s  ClockTime = 0 s

Time = 26s

DICPCG:  Solving for Ux, Initial residual = 0.870829, Final residual = 1.25268e-07, No Iterations 3
DICPCG:  Solving for Uy, Initial residual = 0, Final residual = 0, No Iterations 0
smoothSolver:  Solving for epsilon, Initial residual = 0.212658, Final residual = 4.53098e-07, No Iterations 2
smoothSolver:  Solving for k, Initial residual = 0.143478, Final residual = 5.40151e-07, No Iterations 2
Uncorrected Ubar = 21.1264, pressure gradient = -150.418
Rey = 163.313, uTau = 0.20447, nut+ = 0, nuEff+ = 1, y+ = 12.7794, u+ = 12.7794, k+ = 1.70166e-10, epsilon+ = 1.34015e-12, omega+ = 0.0875064
ExecutionTime = 0.069154 s  ClockTime = 0 s

Time = 27s

DICPCG:  Solving for Ux, Initial residual = 0.805914, Final residual = 1.17729e-07, No Iterations 3
DICPCG:  Solving for Uy, Initial residual = 0, Final residual = 0, No Iterations 0
smoothSolver:  Solving for epsilon, Initial residual = 0.112706, Final residual = 1.66873e-07, No Iterations 2
smoothSolver:  Solving for k, Initial residual = 0.124271, Final residual = 6.93251e-07, No Iterations 2
Uncorrected Ubar = -0.864462, pressure gradient = 147.479
Rey = 278.068, uTau = 0.266806, nut+ = 0, nuEff+ = 1, y+ = 16.6754, u+ = 16.6754, k+ = 9.29414e-11, epsilon+ = 7.18822e-13, omega+ = 0.0859349
ExecutionTime = 0.071242 s  ClockTime = 0 s

Time = 28s

DICPCG:  Solving for Ux, Initial residual = 0.858413, Final residual = 1.23535e-07, No Iterations 3
DICPCG:  Solving for Uy, Initial residual = 0, Final residual = 0, No Iterations 0
smoothSolver:  Solving for epsilon, Initial residual = 0.198086, Final residual = 4.21682e-07, No Iterations 2
smoothSolver:  Solving for k, Initial residual = 0.153818, Final residual = 6.00423e-07, No Iterations 2
Uncorrected Ubar = 20.6094, pressure gradient = -143.423
Rey = 154.869, uTau = 0.199114, nut+ = 0, nuEff+ = 1, y+ = 12.4446, u+ = 12.4446, k+ = 2.35969e-10, epsilon+ = 2.15506e-12, omega+ = 0.101475
ExecutionTime = 0.072955 s  ClockTime = 0 s

Time = 29s

DICPCG:  Solving for Ux, Initial residual = 0.796461, Final residual = 1.16304e-07, No Iterations 3
DICPCG:  Solving for Uy, Initial residual = 0, Final residual = 0, No Iterations 0
smoothSolver:  Solving for epsilon, Initial residual = 0.102191, Final residual = 1.83156e-07, No Iterations 2
smoothSolver:  Solving for k, Initial residual = 0.126986, Final residual = 7.22112e-07, No Iterations 2
Uncorrected Ubar = -0.359597, pressure gradient = 140.63
Rey = 266.064, uTau = 0.260984, nut+ = 0, nuEff+ = 1, y+ = 16.3115, u+ = 16.3115, k+ = 2.12924e-10, epsilon+ = 1.03247e-12, omega+ = 0.0538779
ExecutionTime = 0.074794 s  ClockTime = 0 s

Time = 30s

DICPCG:  Solving for Ux, Initial residual = 0.84584, Final residual = 1.21769e-07, No Iterations 3
DICPCG:  Solving for Uy, Initial residual = 0, Final residual = 0, No Iterations 0
smoothSolver:  Solving for epsilon, Initial residual = 0.206174, Final residual = 4.68185e-07, No Iterations 2
smoothSolver:  Solving for k, Initial residual = 0.140305, Final residual = 5.5341e-07, No Iterations 2
Uncorrected Ubar = 20.1163, pressure gradient = -136.753
Rey = 146.697, uTau = 0.19379, nut+ = 0, nuEff+ = 1, y+ = 12.1119, u+ = 12.1119, k+ = 6.10785e-10, epsilon+ = 5.265e-12, omega+ = 0.0957784
ExecutionTime = 0.076352 s  ClockTime = 0 s

Time = 31s

DICPCG:  Solving for Ux, Initial residual = 0.786862, Final residual = 1.14865e-07, No Iterations 3
DICPCG:  Solving for Uy, Initial residual = 0, Final residual = 0, No Iterations 0
smoothSolver:  Solving for epsilon, Initial residual = 0.118491, Final residual = 1.78325e-07, No Iterations 2
smoothSolver:  Solving for k, Initial residual = 0.124989, Final residual = 7.12886e-07, No Iterations 2
Uncorrected Ubar = 0.12181, pressure gradient = 134.101
Rey = 254.726, uTau = 0.255362, nut+ = 0, nuEff+ = 1, y+ = 15.9601, u+ = 15.9601, k+ = 3.10004e-10, epsilon+ = 2.76181e-12, omega+ = 0.0989884
ExecutionTime = 0.081012 s  ClockTime = 0 s

Time = 32s

DICPCG:  Solving for Ux, Initial residual = 0.832875, Final residual = 1.1994e-07, No Iterations 3
DICPCG:  Solving for Uy, Initial residual = 0, Final residual = 0, No Iterations 0
smoothSolver:  Solving for epsilon, Initial residual = 0.189252, Final residual = 4.23497e-07, No Iterations 2
smoothSolver:  Solving for k, Initial residual = 0.153226, Final residual = 6.30664e-07, No Iterations 2
Uncorrected Ubar = 19.6462, pressure gradient = -130.392
Rey = 138.809, uTau = 0.188508, nut+ = 0, nuEff+ = 1, y+ = 11.7817, u+ = 11.7817, k+ = 7.84966e-10, epsilon+ = 8.1966e-12, omega+ = 0.116022
ExecutionTime = 0.083137 s  ClockTime = 0 s

Time = 33s

DICPCG:  Solving for Ux, Initial residual = 0.777108, Final residual = 1.13409e-07, No Iterations 3
DICPCG:  Solving for Uy, Initial residual = 0, Final residual = 0, No Iterations 0
smoothSolver:  Solving for epsilon, Initial residual = 0.103148, Final residual = 1.97825e-07, No Iterations 2
smoothSolver:  Solving for k, Initial residual = 0.127973, Final residual = 7.487e-07, No Iterations 2
Uncorrected Ubar = 0.580847, pressure gradient = 127.875
Rey = 244, uTau = 0.249928, nut+ = 0, nuEff+ = 1, y+ = 15.6205, u+ = 15.6205, k+ = 7.29758e-10, epsilon+ = 3.66033e-12, omega+ = 0.0557312
ExecutionTime = 0.085111 s  ClockTime = 0 s

Time = 34s

DICPCG:  Solving for Ux, Initial residual = 0.819753, Final residual = 1.18083e-07, No Iterations 3
DICPCG:  Solving for Uy, Initial residual = 0, Final residual = 0, No Iterations 0
smoothSolver:  Solving for epsilon, Initial residual = 0.200534, Final residual = 4.82817e-07, No Iterations 2
smoothSolver:  Solving for k, Initial residual = 0.138769, Final residual = 5.76449e-07, No Iterations 2
Uncorrected Ubar = 19.1979, pressure gradient = -124.327
Rey = 131.212, uTau = 0.183276, nut+ = 0, nuEff+ = 1, y+ = 11.4548, u+ = 11.4548, k+ = 2.16635e-09, epsilon+ = 2.06849e-11, omega+ = 0.106092
ExecutionTime = 0.087516 s  ClockTime = 0 s

Time = 35s

DICPCG:  Solving for Ux, Initial residual = 0.767119, Final residual = 1.11924e-07, No Iterations 3
DICPCG:  Solving for Uy, Initial residual = 0, Final residual = 0, No Iterations 0
smoothSolver:  Solving for epsilon, Initial residual = 0.121272, Final residual = 1.91623e-07, No Iterations 2
smoothSolver:  Solving for k, Initial residual = 0.125755, Final residual = 7.38656e-07, No Iterations 2
Uncorrected Ubar = 1.01855, pressure gradient = 121.939
Rey = 233.84, uTau = 0.244669, nut+ = 0, nuEff+ = 1, y+ = 15.2918, u+ = 15.2918, k+ = 1.06288e-09, epsilon+ = 1.03966e-11, omega+ = 0.108684
ExecutionTime = 0.08957 s  ClockTime = 0 s

Time = 36s

DICPCG:  Solving for Ux, Initial residual = 0.806473, Final residual = 1.16197e-07, No Iterations 3
DICPCG:  Solving for Uy, Initial residual = 0, Final residual = 0, No Iterations 0
smoothSolver:  Solving for epsilon, Initial residual = 0.18441, Final residual = 4.31256e-07, No Iterations 2
smoothSolver:  Solving for k, Initial residual = 0.152175, Final residual = 6.6107e-07, No Iterations 2
Uncorrected Ubar = 18.7705, pressure gradient = -118.543
Rey = 123.906, uTau = 0.178101, nut+ = 0, nuEff+ = 1, y+ = 11.1313, u+ = 11.1313, k+ = 2.75759e-09, epsilon+ = 3.23779e-11, omega+ = 0.13046
ExecutionTime = 0.091025 s  ClockTime = 0 s

Time = 37s

DICPCG:  Solving for Ux, Initial residual = 0.756745, Final residual = 1.10387e-07, No Iterations 3
DICPCG:  Solving for Uy, Initial residual = 0, Final residual = 0, No Iterations 0
smoothSolver:  Solving for epsilon, Initial residual = 0.104176, Final residual = 2.12607e-07, No Iterations 2
smoothSolver:  Solving for k, Initial residual = 0.128699, Final residual = 7.77653e-07, No Iterations 2
Uncorrected Ubar = 1.43592, pressure gradient = 116.278
Rey = 224.207, uTau = 0.239577, nut+ = 0, nuEff+ = 1, y+ = 14.9736, u+ = 14.9736, k+ = 2.53181e-09, epsilon+ = 1.35941e-11, omega+ = 0.0596591
ExecutionTime = 0.092204 s  ClockTime = 0 s

Time = 38s

DICPCG:  Solving for Ux, Initial residual = 0.793036, Final residual = 1.14285e-07, No Iterations 3
DICPCG:  Solving for Uy, Initial residual = 0, Final residual = 0, No Iterations 0
smoothSolver:  Solving for epsilon, Initial residual = 0.195607, Final residual = 4.94859e-07, No Iterations 2
smoothSolver:  Solving for k, Initial residual = 0.138568, Final residual = 6.07306e-07, No Iterations 2
Uncorrected Ubar = 18.3629, pressure gradient = -113.028
Rey = 116.89, uTau = 0.172985, nut+ = 0, nuEff+ = 1, y+ = 10.8116, u+ = 10.8116, k+ = 7.76861e-09, epsilon+ = 8.30911e-11, omega+ = 0.118842
ExecutionTime = 0.093297 s  ClockTime = 0 s

Time = 39s

DICPCG:  Solving for Ux, Initial residual = 0.74619, Final residual = 1.08828e-07, No Iterations 3
DICPCG:  Solving for Uy, Initial residual = 0, Final residual = 0, No Iterations 0
smoothSolver:  Solving for epsilon, Initial residual = 0.121253, Final residual = 2.0627e-07, No Iterations 2
smoothSolver:  Solving for k, Initial residual = 0.12661, Final residual = 7.68466e-07, No Iterations 2
Uncorrected Ubar = 1.8339, pressure gradient = 110.882
Rey = 215.067, uTau = 0.234643, nut+ = 0, nuEff+ = 1, y+ = 14.6652, u+ = 14.6652, k+ = 3.76236e-09, epsilon+ = 3.92649e-11, omega+ = 0.115958
ExecutionTime = 0.097652 s  ClockTime = 0 s

Time = 40s

DICPCG:  Solving for Ux, Initial residual = 0.779446, Final residual = 1.12348e-07, No Iterations 3
DICPCG:  Solving for Uy, Initial residual = 0, Final residual = 0, No Iterations 0
smoothSolver:  Solving for epsilon, Initial residual = 0.180801, Final residual = 4.43023e-07, No Iterations 2
smoothSolver:  Solving for k, Initial residual = 0.151029, Final residual = 6.91983e-07, No Iterations 2
Uncorrected Ubar = 17.9743, pressure gradient = -107.769
Rey = 110.161, uTau = 0.167932, nut+ = 0, nuEff+ = 1, y+ = 10.4957, u+ = 10.4957, k+ = 1.02101e-08, epsilon+ = 1.33356e-10, omega+ = 0.145124
ExecutionTime = 0.099822 s  ClockTime = 0 s

Time = 41s

DICPCG:  Solving for Ux, Initial residual = 0.735456, Final residual = 1.07246e-07, No Iterations 3
DICPCG:  Solving for Uy, Initial residual = 0, Final residual = 0, No Iterations 0
smoothSolver:  Solving for epsilon, Initial residual = 0.105138, Final residual = 2.2748e-07, No Iterations 2
smoothSolver:  Solving for k, Initial residual = 0.129296, Final residual = 8.083e-07, No Iterations 2
Uncorrected Ubar = 2.21339, pressure gradient = 105.736
Rey = 206.387, uTau = 0.229859, nut+ = 0, nuEff+ = 1, y+ = 14.3662, u+ = 14.3662, k+ = 9.01508e-09, epsilon+ = 5.28105e-11, omega+ = 0.0650891
ExecutionTime = 0.101908 s  ClockTime = 0 s

Time = 42s

DICPCG:  Solving for Ux, Initial residual = 0.765682, Final residual = 1.10383e-07, No Iterations 3
DICPCG:  Solving for Uy, Initial residual = 0, Final residual = 0, No Iterations 0
smoothSolver:  Solving for epsilon, Initial residual = 0.191361, Final residual = 5.06327e-07, No Iterations 2
smoothSolver:  Solving for k, Initial residual = 0.138913, Final residual = 6.41877e-07, No Iterations 2
Uncorrected Ubar = 17.6037, pressure gradient = -102.754
Rey = 103.711, uTau = 0.162941, nut+ = 0, nuEff+ = 1, y+ = 10.1838, u+ = 10.1838, k+ = 2.86643e-08, epsilon+ = 3.45967e-10, omega+ = 0.134107
ExecutionTime = 0.103553 s  ClockTime = 0 s

Time = 43s

DICPCG:  Solving for Ux, Initial residual = 0.724543, Final residual = 1.05642e-07, No Iterations 3
DICPCG:  Solving for Uy, Initial residual = 0, Final residual = 0, No Iterations 0
smoothSolver:  Solving for epsilon, Initial residual = 0.120741, Final residual = 2.2169e-07, No Iterations 2
smoothSolver:  Solving for k, Initial residual = 0.12745, Final residual = 8.00247e-07, No Iterations 2
Uncorrected Ubar = 2.57525, pressure gradient = 100.829
Rey = 198.14, uTau = 0.225219, nut+ = 0, nuEff+ = 1, y+ = 14.0762, u+ = 14.0762, k+ = 1.36953e-08, epsilon+ = 1.51444e-10, omega+ = 0.122868
ExecutionTime = 0.105153 s  ClockTime = 0 s

Time = 44s

DICPCG:  Solving for Ux, Initial residual = 0.75157, Final residual = 1.08367e-07, No Iterations 3
DICPCG:  Solving for Uy, Initial residual = 0, Final residual = 0, No Iterations 0
smoothSolver:  Solving for epsilon, Initial residual = 0.178006, Final residual = 4.56164e-07, No Iterations 2
smoothSolver:  Solving for k, Initial residual = 0.149898, Final residual = 7.23386e-07, No Iterations 2
Uncorrected Ubar = 17.2503, pressure gradient = -97.9718
Rey = 97.5336, uTau = 0.158015, nut+ = 0, nuEff+ = 1, y+ = 9.87591, u+ = 9.87591, k+ = 3.90888e-08, epsilon+ = 5.70511e-10, omega+ = 0.162169
ExecutionTime = 0.107398 s  ClockTime = 0 s

Time = 45s

DICPCG:  Solving for Ux, Initial residual = 0.713451, Final residual = 1.04015e-07, No Iterations 3
DICPCG:  Solving for Uy, Initial residual = 0, Final residual = 0, No Iterations 0
smoothSolver:  Solving for epsilon, Initial residual = 0.105954, Final residual = 2.42288e-07, No Iterations 2
smoothSolver:  Solving for k, Initial residual = 0.129781, Final residual = 8.39793e-07, No Iterations 2
Uncorrected Ubar = 2.9203, pressure gradient = 96.1506
Rey = 190.3, uTau = 0.220719, nut+ = 0, nuEff+ = 1, y+ = 13.7949, u+ = 13.7949, k+ = 3.264e-08, epsilon+ = 2.10553e-10, omega+ = 0.0716751
ExecutionTime = 0.109355 s  ClockTime = 0 s

Time = 46s

DICPCG:  Solving for Ux, Initial residual = 0.73585, Final residual = 1.06118e-07, No Iterations 3
DICPCG:  Solving for Uy, Initial residual = 0, Final residual = 0, No Iterations 0
smoothSolver:  Solving for epsilon, Initial residual = 0.187636, Final residual = 5.17563e-07, No Iterations 2
smoothSolver:  Solving for k, Initial residual = 0.139364, Final residual = 6.7797e-07, No Iterations 2
Uncorrected Ubar = 16.9134, pressure gradient = -93.4119
Rey = 91.6215, uTau = 0.153151, nut+ = 0, nuEff+ = 1, y+ = 9.57191, u+ = 9.57191, k+ = 1.08006e-07, epsilon+ = 1.47987e-09, omega+ = 0.152241
ExecutionTime = 0.114924 s  ClockTime = 0 s

Time = 47s

DICPCG:  Solving for Ux, Initial residual = 0.702111, Final residual = 1.02357e-07, No Iterations 3
DICPCG:  Solving for Uy, Initial residual = 0, Final residual = 0, No Iterations 0
smoothSolver:  Solving for epsilon, Initial residual = 0.120114, Final residual = 2.37402e-07, No Iterations 2
smoothSolver:  Solving for k, Initial residual = 0.128132, Final residual = 8.32423e-07, No Iterations 2
Uncorrected Ubar = 3.24934, pressure gradient = 91.6896
Rey = 182.843, uTau = 0.216351, nut+ = 0, nuEff+ = 1, y+ = 13.5219, u+ = 13.5219, k+ = 5.07051e-08, epsilon+ = 5.91999e-10, omega+ = 0.129726
ExecutionTime = 0.117249 s  ClockTime = 0 s

Time = 48s

DICPCG:  Solving for Ux, Initial residual = 0.719982, Final residual = 1.0385e-07, No Iterations 3
DICPCG:  Solving for Uy, Initial residual = 0, Final residual = 0, No Iterations 0
smoothSolver:  Solving for epsilon, Initial residual = 0.176099, Final residual = 4.6985e-07, No Iterations 2
smoothSolver:  Solving for k, Initial residual = 0.14871, Final residual = 7.54698e-07, No Iterations 2
Uncorrected Ubar = 16.592, pressure gradient = -89.0638
Rey = 85.9654, uTau = 0.148348, nut+ = 0, nuEff+ = 1, y+ = 9.27176, u+ = 9.27176, k+ = 1.52841e-07, epsilon+ = 2.50906e-09, omega+ = 0.182401
ExecutionTime = 0.120142 s  ClockTime = 0 s

Time = 49s

DICPCG:  Solving for Ux, Initial residual = 0.690429, Final residual = 1.00656e-07, No Iterations 3
DICPCG:  Solving for Uy, Initial residual = 0, Final residual = 0, No Iterations 0
smoothSolver:  Solving for epsilon, Initial residual = 0.106578, Final residual = 2.56831e-07, No Iterations 2
smoothSolver:  Solving for k, Initial residual = 0.130069, Final residual = 8.71151e-07, No Iterations 2
Uncorrected Ubar = 3.56312, pressure gradient = 87.436
Rey = 175.747, uTau = 0.212111, nut+ = 0, nuEff+ = 1, y+ = 13.257, u+ = 13.257, k+ = 1.19266e-07, epsilon+ = 8.50783e-10, omega+ = 0.0792608
ExecutionTime = 0.121517 s  ClockTime = 0 s

Time = 50s

DICPCG:  Solving for Ux, Initial residual = 0.703809, Final residual = 1.01542e-07, No Iterations 3
DICPCG:  Solving for Uy, Initial residual = 0, Final residual = 0, No Iterations 0
smoothSolver:  Solving for epsilon, Initial residual = 0.184296, Final residual = 5.28507e-07, No Iterations 2
smoothSolver:  Solving for k, Initial residual = 0.139839, Final residual = 7.15305e-07, No Iterations 2
Uncorrected Ubar = 16.2856, pressure gradient = -84.9178
Rey = 80.5563, uTau = 0.143605, nut+ = 0, nuEff+ = 1, y+ = 8.97532, u+ = 8.97532, k+ = 4.12946e-07, epsilon+ = 6.46007e-09, omega+ = 0.17382
ExecutionTime = 0.122654 s  ClockTime = 0 s

Time = 51s

DICPCG:  Solving for Ux, Initial residual = 0.678574, Final residual = 9.89385e-08, No Iterations 3
DICPCG:  Solving for Uy, Initial residual = 0, Final residual = 0, No Iterations 0
smoothSolver:  Solving for epsilon, Initial residual = 0.119298, Final residual = 2.53073e-07, No Iterations 2
smoothSolver:  Solving for k, Initial residual = 0.128688, Final residual = 8.65153e-07, No Iterations 2
Uncorrected Ubar = 3.86236, pressure gradient = 83.3801
Rey = 168.993, uTau = 0.207995, nut+ = 0, nuEff+ = 1, y+ = 12.9997, u+ = 12.9997, k+ = 1.89726e-07, epsilon+ = 2.32963e-09, omega+ = 0.136432
ExecutionTime = 0.12395 s  ClockTime = 0 s

Time = 52s

DICPCG:  Solving for Ux, Initial residual = 0.686481, Final residual = 9.90754e-08, No Iterations 3
DICPCG:  Solving for Uy, Initial residual = 0, Final residual = 0, No Iterations 0
smoothSolver:  Solving for epsilon, Initial residual = 0.174419, Final residual = 4.84054e-07, No Iterations 2
smoothSolver:  Solving for k, Initial residual = 0.147567, Final residual = 7.86718e-07, No Iterations 2
Uncorrected Ubar = 15.9934, pressure gradient = -80.9644
Rey = 75.3841, uTau = 0.138918, nut+ = 0, nuEff+ = 1, y+ = 8.6824, u+ = 8.6824, k+ = 6.07266e-07, epsilon+ = 1.12841e-08, omega+ = 0.206464
ExecutionTime = 0.125281 s  ClockTime = 0 s

Time = 53s

DICPCG:  Solving for Ux, Initial residual = 0.666545, Final residual = 9.7211e-08, No Iterations 3
DICPCG:  Solving for Uy, Initial residual = 0, Final residual = 0, No Iterations 0
smoothSolver:  Solving for epsilon, Initial residual = 0.106947, Final residual = 2.70908e-07, No Iterations 2
smoothSolver:  Solving for k, Initial residual = 0.130295, Final residual = 9.03672e-07, No Iterations 2
Uncorrected Ubar = 4.14778, pressure gradient = 79.5128
Rey = 162.56, uTau = 0.203999, nut+ = 0, nuEff+ = 1, y+ = 12.7499, u+ = 12.7499, k+ = 4.38236e-07, epsilon+ = 3.46466e-09, omega+ = 0.0878436
ExecutionTime = 0.126602 s  ClockTime = 0 s

Time = 54s

DICPCG:  Solving for Ux, Initial residual = 0.669199, Final residual = 9.6632e-08, No Iterations 3
DICPCG:  Solving for Uy, Initial residual = 0, Final residual = 0, No Iterations 0
smoothSolver:  Solving for epsilon, Initial residual = 0.181211, Final residual = 5.39415e-07, No Iterations 2
smoothSolver:  Solving for k, Initial residual = 0.140311, Final residual = 7.54631e-07, No Iterations 2
Uncorrected Ubar = 15.7146, pressure gradient = -77.1947
Rey = 70.4381, uTau = 0.134284, nut+ = 0, nuEff+ = 1, y+ = 8.39274, u+ = 8.39274, k+ = 1.59789e-06, epsilon+ = 2.87169e-08, omega+ = 0.199686
ExecutionTime = 0.131919 s  ClockTime = 0 s

Time = 55s

DICPCG:  Solving for Ux, Initial residual = 0.654342, Final residual = 9.54806e-08, No Iterations 3
DICPCG:  Solving for Uy, Initial residual = 0, Final residual = 0, No Iterations 0
smoothSolver:  Solving for epsilon, Initial residual = 0.118146, Final residual = 2.68413e-07, No Iterations 2
smoothSolver:  Solving for k, Initial residual = 0.129171, Final residual = 8.99993e-07, No Iterations 2
Uncorrected Ubar = 4.42008, pressure gradient = 75.8253
Rey = 156.431, uTau = 0.200116, nut+ = 0, nuEff+ = 1, y+ = 12.5072, u+ = 12.5072, k+ = 7.15583e-07, epsilon+ = 9.19898e-09, omega+ = 0.142836
ExecutionTime = 0.136643 s  ClockTime = 0 s

Time = 56s

DICPCG:  Solving for Ux, Initial residual = 0.651982, Final residual = 9.42224e-08, No Iterations 3
DICPCG:  Solving for Uy, Initial residual = 0, Final residual = 0, No Iterations 0
smoothSolver:  Solving for epsilon, Initial residual = 0.172823, Final residual = 4.9948e-07, No Iterations 2
smoothSolver:  Solving for k, Initial residual = 0.146456, Final residual = 8.21106e-07, No Iterations 2
Uncorrected Ubar = 15.4485, pressure gradient = -73.6003
Rey = 65.7061, uTau = 0.129695, nut+ = 0, nuEff+ = 1, y+ = 8.10593, u+ = 8.10593, k+ = 2.44944e-06, epsilon+ = 5.18562e-08, omega+ = 0.235229
ExecutionTime = 0.138051 s  ClockTime = 0 s

Time = 57s

DICPCG:  Solving for Ux, Initial residual = 0.641951, Final residual = 9.37622e-08, No Iterations 3
DICPCG:  Solving for Uy, Initial residual = 0, Final residual = 0, No Iterations 0
smoothSolver:  Solving for epsilon, Initial residual = 0.106884, Final residual = 2.8426e-07, No Iterations 2
smoothSolver:  Solving for k, Initial residual = 0.130469, Final residual = 9.3995e-07, No Iterations 2
Uncorrected Ubar = 4.67996, pressure gradient = 72.3093
Rey = 150.587, uTau = 0.196342, nut+ = 0, nuEff+ = 1, y+ = 12.2714, u+ = 12.2714, k+ = 1.61774e-06, epsilon+ = 1.41948e-08, omega+ = 0.0974941
ExecutionTime = 0.139352 s  ClockTime = 0 s

Time = 58s

DICPCG:  Solving for Ux, Initial residual = 0.63394, Final residual = 9.17419e-08, No Iterations 3
DICPCG:  Solving for Uy, Initial residual = 0, Final residual = 0, No Iterations 0
smoothSolver:  Solving for epsilon, Initial residual = 0.178084, Final residual = 5.51202e-07, No Iterations 2
smoothSolver:  Solving for k, Initial residual = 0.140735, Final residual = 7.98921e-07, No Iterations 2
Uncorrected Ubar = 15.1946, pressure gradient = -70.173
Rey = 61.1737, uTau = 0.125142, nut+ = 0, nuEff+ = 1, y+ = 7.82136, u+ = 7.82136, k+ = 6.26091e-06, epsilon+ = 1.30196e-07, omega+ = 0.231055
ExecutionTime = 0.141342 s  ClockTime = 0 s

Time = 59s

DICPCG:  Solving for Ux, Initial residual = 0.629344, Final residual = 9.20709e-08, No Iterations 3
DICPCG:  Solving for Uy, Initial residual = 0, Final residual = 0, No Iterations 0
smoothSolver:  Solving for epsilon, Initial residual = 0.11628, Final residual = 2.83051e-07, No Iterations 2
smoothSolver:  Solving for k, Initial residual = 0.129582, Final residual = 9.42169e-07, No Iterations 2
Uncorrected Ubar = 4.92817, pressure gradient = 68.9568
Rey = 145.009, uTau = 0.192672, nut+ = 0, nuEff+ = 1, y+ = 12.042, u+ = 12.042, k+ = 2.722e-06, epsilon+ = 3.64285e-08, omega+ = 0.1487
ExecutionTime = 0.143236 s  ClockTime = 0 s

Time = 60s

DICPCG:  Solving for Ux, Initial residual = 0.615554, Final residual = 8.92747e-08, No Iterations 3
DICPCG:  Solving for Uy, Initial residual = 0, Final residual = 0, No Iterations 0
smoothSolver:  Solving for epsilon, Initial residual = 0.17082, Final residual = 5.17936e-07, No Iterations 2
smoothSolver:  Solving for k, Initial residual = 0.145343, Final residual = 8.63648e-07, No Iterations 2
Uncorrected Ubar = 14.9519, pressure gradient = -66.9051
Rey = 56.8224, uTau = 0.120609, nut+ = 0, nuEff+ = 1, y+ = 7.53806, u+ = 7.53806, k+ = 1.00639e-05, epsilon+ = 2.44498e-07, omega+ = 0.26994
ExecutionTime = 0.147109 s  ClockTime = 0 s

Time = 61s

DICPCG:  Solving for Ux, Initial residual = 0.616467, Final residual = 9.04377e-08, No Iterations 3
DICPCG:  Solving for Uy, Initial residual = 0, Final residual = 0, No Iterations 0
smoothSolver:  Solving for epsilon, Initial residual = 0.105744, Final residual = 2.96443e-07, No Iterations 2
smoothSolver:  Solving for k, Initial residual = 0.130582, Final residual = 9.88712e-07, No Iterations 2
Uncorrected Ubar = 5.16551, pressure gradient = 65.7603
Rey = 139.679, uTau = 0.189097, nut+ = 0, nuEff+ = 1, y+ = 11.8186, u+ = 11.8186, k+ = 6.01503e-06, epsilon+ = 5.8621e-08, omega+ = 0.108286
ExecutionTime = 0.150456 s  ClockTime = 0 s

Time = 62s

DICPCG:  Solving for Ux, Initial residual = 0.597327, Final residual = 8.6946e-08, No Iterations 3
DICPCG:  Solving for Uy, Initial residual = 0, Final residual = 0, No Iterations 0
smoothSolver:  Solving for epsilon, Initial residual = 0.174378, Final residual = 5.67817e-07, No Iterations 2
smoothSolver:  Solving for k, Initial residual = 0.141033, Final residual = 8.58357e-07, No Iterations 2
Uncorrected Ubar = 14.7195, pressure gradient = -63.7893
Rey = 52.6268, uTau = 0.116071, nut+ = 0, nuEff+ = 1, y+ = 7.25443, u+ = 7.25443, k+ = 2.49836e-05, epsilon+ = 6.06716e-07, omega+ = 0.269828
ExecutionTime = 0.154473 s  ClockTime = 0 s

Time = 63s

DICPCG:  Solving for Ux, Initial residual = 0.603089, Final residual = 8.88581e-08, No Iterations 3
DICPCG:  Solving for Uy, Initial residual = 0, Final residual = 0, No Iterations 0
smoothSolver:  Solving for epsilon, Initial residual = 0.112384, Final residual = 2.96254e-07, No Iterations 2
smoothSolver:  Solving for k, Initial residual = 0.129866, Final residual = 2.84179e-09, No Iterations 3
Uncorrected Ubar = 5.39295, pressure gradient = 62.7127
Rey = 134.573, uTau = 0.185609, nut+ = 0, nuEff+ = 1, y+ = 11.6006, u+ = 11.6006, k+ = 1.0508e-05, epsilon+ = 1.45203e-07, omega+ = 0.153536
ExecutionTime = 0.156237 s  ClockTime = 0 s

Time = 64s

DICPCG:  Solving for Ux, Initial residual = 0.579015, Final residual = 8.47143e-08, No Iterations 3
DICPCG:  Solving for Uy, Initial residual = 0, Final residual = 0, No Iterations 0
smoothSolver:  Solving for epsilon, Initial residual = 0.167756, Final residual = 5.47718e-07, No Iterations 2
smoothSolver:  Solving for k, Initial residual = 0.144028, Final residual = 9.32739e-07, No Iterations 2
Uncorrected Ubar = 14.4965, pressure gradient = -60.8187
Rey = 48.5504, uTau = 0.111485, nut+ = 0, nuEff+ = 1, y+ = 6.96781, u+ = 6.96781, k+ = 4.26365e-05, epsilon+ = 1.19984e-06, omega+ = 0.31268
ExecutionTime = 0.158265 s  ClockTime = 0 s

Time = 65s

DICPCG:  Solving for Ux, Initial residual = 0.589059, Final residual = 8.73412e-08, No Iterations 3
DICPCG:  Solving for Uy, Initial residual = 0, Final residual = 0, No Iterations 0
smoothSolver:  Solving for epsilon, Initial residual = 0.10135, Final residual = 3.12543e-07, No Iterations 2
smoothSolver:  Solving for k, Initial residual = 0.130453, Final residual = 3.14746e-09, No Iterations 3
Uncorrected Ubar = 5.61168, pressure gradient = 59.8071
Rey = 129.671, uTau = 0.182197, nut+ = 0, nuEff+ = 1, y+ = 11.3873, u+ = 11.3873, k+ = 2.27612e-05, epsilon+ = 2.46216e-07, omega+ = 0.120193
ExecutionTime = 0.160628 s  ClockTime = 1 s

Time = 66s

DICPCG:  Solving for Ux, Initial residual = 0.559852, Final residual = 8.24846e-08, No Iterations 3
DICPCG:  Solving for Uy, Initial residual = 0, Final residual = 0, No Iterations 0
smoothSolver:  Solving for epsilon, Initial residual = 0.168626, Final residual = 6.03406e-07, No Iterations 2
smoothSolver:  Solving for k, Initial residual = 0.140924, Final residual = 9.66591e-07, No Iterations 2
Uncorrected Ubar = 14.2813, pressure gradient = -57.9864
Rey = 44.5352, uTau = 0.106776, nut+ = 0, nuEff+ = 1, y+ = 6.67347, u+ = 6.67347, k+ = 0.000103441, epsilon+ = 2.9762e-06, omega+ = 0.319688
ExecutionTime = 0.164829 s  ClockTime = 1 s

Time = 67s

DICPCG:  Solving for Ux, Initial residual = 0.574082, Final residual = 8.59621e-08, No Iterations 3
DICPCG:  Solving for Uy, Initial residual = 0, Final residual = 0, No Iterations 0
smoothSolver:  Solving for epsilon, Initial residual = 0.109979, Final residual = 3.29478e-07, No Iterations 2
smoothSolver:  Solving for k, Initial residual = 0.129739, Final residual = 3.46324e-09, No Iterations 3
Uncorrected Ubar = 5.82331, pressure gradient = 57.0367
Rey = 124.944, uTau = 0.178845, nut+ = 0, nuEff+ = 1, y+ = 11.1778, u+ = 11.1778, k+ = 4.19517e-05, epsilon+ = 5.902e-07, omega+ = 0.156317
ExecutionTime = 0.168983 s  ClockTime = 1 s

Time = 68s

DICPCG:  Solving for Ux, Initial residual = 0.540625, Final residual = 8.0777e-08, No Iterations 3
DICPCG:  Solving for Uy, Initial residual = 0, Final residual = 0, No Iterations 0
smoothSolver:  Solving for epsilon, Initial residual = 0.160557, Final residual = 6.14997e-07, No Iterations 2
smoothSolver:  Solving for k, Initial residual = 0.142217, Final residual = 3.08398e-09, No Iterations 3
Uncorrected Ubar = 14.0721, pressure gradient = -55.285
Rey = 40.4929, uTau = 0.101814, nut+ = 0, nuEff+ = 1, y+ = 6.3634, u+ = 6.3634, k+ = 0.000192744, epsilon+ = 6.39346e-06, omega+ = 0.368564
ExecutionTime = 0.170721 s  ClockTime = 1 s

Time = 69s

DICPCG:  Solving for Ux, Initial residual = 0.557488, Final residual = 8.48284e-08, No Iterations 3
DICPCG:  Solving for Uy, Initial residual = 0, Final residual = 0, No Iterations 0
smoothSolver:  Solving for epsilon, Initial residual = 0.104828, Final residual = 3.70591e-07, No Iterations 2
smoothSolver:  Solving for k, Initial residual = 0.129705, Final residual = 4.21535e-09, No Iterations 3
Uncorrected Ubar = 6.03001, pressure gradient = 54.3938
Rey = 120.383, uTau = 0.175551, nut+ = 0, nuEff+ = 1, y+ = 10.9719, u+ = 10.9719, k+ = 9.00183e-05, epsilon+ = 1.07711e-06, omega+ = 0.132949
ExecutionTime = 0.171817 s  ClockTime = 1 s

Time = 70s

DICPCG:  Solving for Ux, Initial residual = 0.520976, Final residual = 7.89428e-08, No Iterations 3
DICPCG:  Solving for Uy, Initial residual = 0, Final residual = 0, No Iterations 0
smoothSolver:  Solving for epsilon, Initial residual = 0.154558, Final residual = 7.0646e-07, No Iterations 2
smoothSolver:  Solving for k, Initial residual = 0.139954, Final residual = 3.83828e-09, No Iterations 3
Uncorrected Ubar = 13.8663, pressure gradient = -52.7058
Rey = 36.2784, uTau = 0.0963705, nut+ = 0, nuEff+ = 1, y+ = 6.02315, u+ = 6.02315, k+ = 0.000467646, epsilon+ = 1.64676e-05, omega+ = 0.391265
ExecutionTime = 0.174262 s  ClockTime = 1 s

Time = 71s

DICPCG:  Solving for Ux, Initial residual = 0.53811, Final residual = 8.28341e-08, No Iterations 3
DICPCG:  Solving for Uy, Initial residual = 0, Final residual = 0, No Iterations 0
smoothSolver:  Solving for epsilon, Initial residual = 0.115778, Final residual = 4.7059e-07, No Iterations 2
smoothSolver:  Solving for k, Initial residual = 0.128346, Final residual = 5.56478e-09, No Iterations 3
Uncorrected Ubar = 6.23451, pressure gradient = 51.8684
Rey = 116.002, uTau = 0.172327, nut+ = 0, nuEff+ = 1, y+ = 10.7704, u+ = 10.7704, k+ = 0.000179863, epsilon+ = 2.52152e-06, omega+ = 0.155768
ExecutionTime = 0.177056 s  ClockTime = 1 s

Time = 72s

DICPCG:  Solving for Ux, Initial residual = 0.498951, Final residual = 7.44397e-08, No Iterations 3
DICPCG:  Solving for Uy, Initial residual = 0, Final residual = 0, No Iterations 0
smoothSolver:  Solving for epsilon, Initial residual = 0.137251, Final residual = 8.14626e-07, No Iterations 2
smoothSolver:  Solving for k, Initial residual = 0.139007, Final residual = 5.72672e-09, No Iterations 3
Uncorrected Ubar = 13.6608, pressure gradient = -50.2342
Rey = 31.6864, uTau = 0.0900651, nut+ = 0, nuEff+ = 1, y+ = 5.62907, u+ = 5.62907, k+ = 0.00100721, epsilon+ = 4.15616e-05, omega+ = 0.458491
ExecutionTime = 0.181484 s  ClockTime = 1 s

Time = 73s

DICPCG:  Solving for Ux, Initial residual = 0.514033, Final residual = 7.54034e-08, No Iterations 3
DICPCG:  Solving for Uy, Initial residual = 0, Final residual = 0, No Iterations 0
smoothSolver:  Solving for epsilon, Initial residual = 0.152846, Final residual = 8.19664e-07, No Iterations 2
smoothSolver:  Solving for k, Initial residual = 0.126446, Final residual = 8.84195e-09, No Iterations 3
Uncorrected Ubar = 6.4399, pressure gradient = 49.4436
Rey = 111.944, uTau = 0.169286, nut+ = 0, nuEff+ = 1, y+ = 10.5804, u+ = 10.5804, k+ = 0.000389024, epsilon+ = 5.09352e-06, omega+ = 0.145479
ExecutionTime = 0.184119 s  ClockTime = 1 s

Time = 74s

DICPCG:  Solving for Ux, Initial residual = 0.474517, Final residual = 6.59242e-08, No Iterations 3
DICPCG:  Solving for Uy, Initial residual = 0, Final residual = 0, No Iterations 0
smoothSolver:  Solving for epsilon, Initial residual = 0.139328, Final residual = 3.39289e-09, No Iterations 3
smoothSolver:  Solving for k, Initial residual = 0.136092, Final residual = 1.04803e-08, No Iterations 3
Uncorrected Ubar = 13.4531, pressure gradient = -47.8466
Rey = 26.4402, uTau = 0.0822721, nut+ = 0, nuEff+ = 1, y+ = 5.142, u+ = 5.142, k+ = 0.0025934, epsilon+ = 0.000124589, omega+ = 0.533785
ExecutionTime = 0.186567 s  ClockTime = 1 s

Time = 75s

DICPCG:  Solving for Ux, Initial residual = 0.482742, Final residual = 5.81859e-08, No Iterations 3
DICPCG:  Solving for Uy, Initial residual = 0, Final residual = 0, No Iterations 0
smoothSolver:  Solving for epsilon, Initial residual = 0.213998, Final residual = 5.01511e-09, No Iterations 3
smoothSolver:  Solving for k, Initial residual = 0.122343, Final residual = 1.81272e-08, No Iterations 3
Uncorrected Ubar = 6.64783, pressure gradient = 47.0908
Rey = 108.502, uTau = 0.166663, nut+ = 0, nuEff+ = 1, y+ = 10.4164, u+ = 10.4164, k+ = 0.000843359, epsilon+ = 1.1649e-05, omega+ = 0.153474
ExecutionTime = 0.188519 s  ClockTime = 1 s

Time = 76s

DICPCG:  Solving for Ux, Initial residual = 0.445862, Final residual = 5.52509e-08, No Iterations 3
DICPCG:  Solving for Uy, Initial residual = 0, Final residual = 0, No Iterations 0
smoothSolver:  Solving for epsilon, Initial residual = 0.205402, Final residual = 8.47935e-09, No Iterations 3
smoothSolver:  Solving for k, Initial residual = 0.131842, Final residual = 2.49135e-08, No Iterations 3
Uncorrected Ubar = 13.2436, pressure gradient = -45.5058
Rey = 20.3348, uTau = 0.0721505, nut+ = 0, nuEff+ = 1, y+ = 4.50941, u+ = 4.50941, k+ = 0.00700719, epsilon+ = 0.00044259, omega+ = 0.701803
ExecutionTime = 0.19037 s  ClockTime = 1 s

Time = 77s

DICPCG:  Solving for Ux, Initial residual = 0.442381, Final residual = 6.12333e-08, No Iterations 3
DICPCG:  Solving for Uy, Initial residual = 0, Final residual = 0, No Iterations 0
smoothSolver:  Solving for epsilon, Initial residual = 0.268294, Final residual = 1.40948e-08, No Iterations 3
smoothSolver:  Solving for k, Initial residual = 0.127413, Final residual = 5.44196e-08, No Iterations 3
Uncorrected Ubar = 6.85681, pressure gradient = 44.7717
Rey = 106.097, uTau = 0.164805, nut+ = 0, nuEff+ = 1, y+ = 10.3003, u+ = 10.3003, k+ = 0.00185528, epsilon+ = 2.53167e-05, omega+ = 0.151619
ExecutionTime = 0.192709 s  ClockTime = 1 s

Time = 78s

DICPCG:  Solving for Ux, Initial residual = 0.410465, Final residual = 7.2674e-08, No Iterations 3
DICPCG:  Solving for Uy, Initial residual = 0, Final residual = 0, No Iterations 0
smoothSolver:  Solving for epsilon, Initial residual = 0.26453, Final residual = 2.42529e-08, No Iterations 3
smoothSolver:  Solving for k, Initial residual = 0.126848, Final residual = 7.08602e-08, No Iterations 3
Uncorrected Ubar = 13.0355, pressure gradient = -43.1775
Rey = 13.3667, uTau = 0.0584968, nut+ = 0, nuEff+ = 1, y+ = 3.65605, u+ = 3.65605, k+ = 0.0227936, epsilon+ = 0.0022034, omega+ = 1.07408
ExecutionTime = 0.197563 s  ClockTime = 1 s

Time = 79s

DICPCG:  Solving for Ux, Initial residual = 0.393808, Final residual = 7.5673e-08, No Iterations 3
DICPCG:  Solving for Uy, Initial residual = 0, Final residual = 0, No Iterations 0
smoothSolver:  Solving for epsilon, Initial residual = 0.306639, Final residual = 4.22662e-08, No Iterations 3
smoothSolver:  Solving for k, Initial residual = 0.141007, Final residual = 2.33539e-07, No Iterations 3
Uncorrected Ubar = 7.06235, pressure gradient = 42.4634
Rey = 105.001, uTau = 0.163952, nut+ = 0, nuEff+ = 1, y+ = 10.247, u+ = 10.247, k+ = 0.00410375, epsilon+ = 5.52689e-05, omega+ = 0.149643
ExecutionTime = 0.199713 s  ClockTime = 1 s

Time = 80s

DICPCG:  Solving for Ux, Initial residual = 0.369364, Final residual = 9.74632e-08, No Iterations 3
DICPCG:  Solving for Uy, Initial residual = 0, Final residual = 0, No Iterations 0
smoothSolver:  Solving for epsilon, Initial residual = 0.303566, Final residual = 7.72525e-08, No Iterations 3
smoothSolver:  Solving for k, Initial residual = 0.136892, Final residual = 2.07574e-07, No Iterations 3
Uncorrected Ubar = 12.8328, pressure gradient = -40.8601
Rey = 5.76444, uTau = 0.0384148, nut+ = 0, nuEff+ = 1, y+ = 2.40092, u+ = 2.40092, k+ = 0.113856, epsilon+ = 0.0259352, omega+ = 2.53099
ExecutionTime = 0.203104 s  ClockTime = 1 s

Time = 81s

DICPCG:  Solving for Ux, Initial residual = 0.340724, Final residual = 8.6099e-08, No Iterations 3
DICPCG:  Solving for Uy, Initial residual = 0, Final residual = 0, No Iterations 0
smoothSolver:  Solving for epsilon, Initial residual = 0.32367, Final residual = 1.22294e-07, No Iterations 3
smoothSolver:  Solving for k, Initial residual = 0.148128, Final residual = 9.54141e-07, No Iterations 3
Uncorrected Ubar = 7.26057, pressure gradient = 40.188
Rey = 105.4, uTau = 0.164263, nut+ = 0, nuEff+ = 1, y+ = 10.2665, u+ = 10.2665, k+ = 0.00905525, epsilon+ = 0.000118158, omega+ = 0.144984
ExecutionTime = 0.20516 s  ClockTime = 1 s

Time = 82s

DICPCG:  Solving for Ux, Initial residual = 0.324568, Final residual = 9.40656e-08, No Iterations 3
DICPCG:  Solving for Uy, Initial residual = 0, Final residual = 0, No Iterations 0
smoothSolver:  Solving for epsilon, Initial residual = 0.315777, Final residual = 2.34429e-07, No Iterations 3
smoothSolver:  Solving for k, Initial residual = 0.153279, Final residual = 9.22256e-07, No Iterations 3
Uncorrected Ubar = 12.6392, pressure gradient = -38.6032
Rey = 2.37695, uTau = 0.0246678, nut+ = 0, nuEff+ = 1, y+ = 1.54174, u+ = 1.54174, k+ = 0.602837, epsilon+ = 0.337856, omega+ = 6.22716
ExecutionTime = 0.207236 s  ClockTime = 1 s

Time = 83s

DICPCG:  Solving for Ux, Initial residual = 0.288178, Final residual = 9.86124e-08, No Iterations 3
DICPCG:  Solving for Uy, Initial residual = 0, Final residual = 0, No Iterations 0
smoothSolver:  Solving for epsilon, Initial residual = 0.322991, Final residual = 3.27164e-07, No Iterations 3
smoothSolver:  Solving for k, Initial residual = 0.150934, Final residual = 1.2677e-07, No Iterations 4
Uncorrected Ubar = 7.44829, pressure gradient = 38.0108
Rey = 107.71, uTau = 0.166053, nut+ = 0, nuEff+ = 1, y+ = 10.3783, u+ = 10.3783, k+ = 0.0199153, epsilon+ = 0.000247023, omega+ = 0.137819
ExecutionTime = 0.208597 s  ClockTime = 1 s

Time = 84s

DICPCG:  Solving for Ux, Initial residual = 0.279885, Final residual = 8.48995e-08, No Iterations 3
DICPCG:  Solving for Uy, Initial residual = 0, Final residual = 0, No Iterations 0
smoothSolver:  Solving for epsilon, Initial residual = 0.290932, Final residual = 5.42772e-07, No Iterations 3
smoothSolver:  Solving for k, Initial residual = 0.153797, Final residual = 1.42448e-07, No Iterations 4
Uncorrected Ubar = 12.4575, pressure gradient = -36.4911
Rey = 11.3446, uTau = 0.0538908, nut+ = 0, nuEff+ = 1, y+ = 3.36818, u+ = 3.36818, k+ = 0.283243, epsilon+ = 0.0333345, omega+ = 1.30765
ExecutionTime = 0.209772 s  ClockTime = 1 s

Time = 85s

DICPCG:  Solving for Ux, Initial residual = 0.239902, Final residual = 1.05526e-07, No Iterations 3
DICPCG:  Solving for Uy, Initial residual = 0, Final residual = 0, No Iterations 0
smoothSolver:  Solving for epsilon, Initial residual = 0.302766, Final residual = 7.47958e-07, No Iterations 3
smoothSolver:  Solving for k, Initial residual = 0.144988, Final residual = 3.472e-07, No Iterations 4
Uncorrected Ubar = 7.62173, pressure gradient = 36.0179
Rey = 112.965, uTau = 0.170056, nut+ = 0, nuEff+ = 1, y+ = 10.6285, u+ = 10.6285, k+ = 0.0441702, epsilon+ = 0.000503609, omega+ = 0.126684
ExecutionTime = 0.215648 s  ClockTime = 1 s

Time = 86s

DICPCG:  Solving for Ux, Initial residual = 0.236957, Final residual = 9.76673e-08, No Iterations 3
DICPCG:  Solving for Uy, Initial residual = 0, Final residual = 0, No Iterations 0
smoothSolver:  Solving for epsilon, Initial residual = 0.238709, Final residual = 9.49919e-07, No Iterations 3
smoothSolver:  Solving for k, Initial residual = 0.138797, Final residual = 3.87228e-07, No Iterations 4
Uncorrected Ubar = 12.2906, pressure gradient = -34.61
Rey = 22.0918, uTau = 0.075203, nut+ = 0, nuEff+ = 1, y+ = 4.70019, u+ = 4.70019, k+ = 0.345465, epsilon+ = 0.0204475, omega+ = 0.657649
ExecutionTime = 0.218184 s  ClockTime = 1 s

Time = 87s

DICPCG:  Solving for Ux, Initial residual = 0.196721, Final residual = 9.19268e-08, No Iterations 3
DICPCG:  Solving for Uy, Initial residual = 0, Final residual = 0, No Iterations 0
smoothSolver:  Solving for epsilon, Initial residual = 0.267323, Final residual = 3.79301e-08, No Iterations 4
smoothSolver:  Solving for k, Initial residual = 0.131682, Final residual = 6.47537e-07, No Iterations 4
Uncorrected Ubar = 7.77719, pressure gradient = 34.3016
Rey = 123.418, uTau = 0.17775, nut+ = 0, nuEff+ = 1, y+ = 11.1093, u+ = 11.1093, k+ = 0.101255, epsilon+ = 0.0010021, omega+ = 0.109965
ExecutionTime = 0.2207 s  ClockTime = 1 s

Time = 88s

DICPCG:  Solving for Ux, Initial residual = 0.194533, Final residual = 8.67982e-08, No Iterations 3
DICPCG:  Solving for Uy, Initial residual = 0, Final residual = 0, No Iterations 0
smoothSolver:  Solving for epsilon, Initial residual = 0.178145, Final residual = 5.96183e-08, No Iterations 4
smoothSolver:  Solving for k, Initial residual = 0.121341, Final residual = 8.45886e-08, No Iterations 5
Uncorrected Ubar = 12.1428, pressure gradient = -33.0434
Rey = 36.5145, uTau = 0.0966835, nut+ = 0, nuEff+ = 1, y+ = 6.04272, u+ = 6.04272, k+ = 0.54933, epsilon+ = 0.0187453, omega+ = 0.379155
ExecutionTime = 0.22472 s  ClockTime = 1 s

Time = 89s

DICPCG:  Solving for Ux, Initial residual = 0.15678, Final residual = 6.8339e-08, No Iterations 3
DICPCG:  Solving for Uy, Initial residual = 0, Final residual = 0, No Iterations 0
smoothSolver:  Solving for epsilon, Initial residual = 0.222292, Final residual = 7.3461e-08, No Iterations 4
smoothSolver:  Solving for k, Initial residual = 0.111862, Final residual = 1.17784e-07, No Iterations 5
Uncorrected Ubar = 7.91119, pressure gradient = 32.9545
Rey = 142.559, uTau = 0.191037, nut+ = 0, nuEff+ = 1, y+ = 11.9398, u+ = 11.9398, k+ = 0.243717, epsilon+ = 0.00197395, omega+ = 0.0899927
ExecutionTime = 0.231187 s  ClockTime = 1 s

Time = 90s

DICPCG:  Solving for Ux, Initial residual = 0.153148, Final residual = 5.09476e-08, No Iterations 3
DICPCG:  Solving for Uy, Initial residual = 0, Final residual = 0, No Iterations 0
smoothSolver:  Solving for epsilon, Initial residual = 0.135885, Final residual = 1.72644e-07, No Iterations 4
smoothSolver:  Solving for k, Initial residual = 0.120663, Final residual = 2.34623e-07, No Iterations 5
Uncorrected Ubar = 12.0188, pressure gradient = -31.8672
Rey = 56.4858, uTau = 0.120251, nut+ = 0, nuEff+ = 1, y+ = 7.5157, u+ = 7.5157, k+ = 1.03599, epsilon+ = 0.0217788, omega+ = 0.23358
ExecutionTime = 0.233656 s  ClockTime = 1 s

Time = 91s

DICPCG:  Solving for Ux, Initial residual = 0.118652, Final residual = 5.45992e-08, No Iterations 3
DICPCG:  Solving for Uy, Initial residual = 0, Final residual = 0, No Iterations 0
smoothSolver:  Solving for epsilon, Initial residual = 0.165269, Final residual = 1.30108e-07, No Iterations 4
smoothSolver:  Solving for k, Initial residual = 0.0880172, Final residual = 3.90047e-07, No Iterations 5
Uncorrected Ubar = 8.01948, pressure gradient = 32.0337
Rey = 170.521, uTau = 0.208934, nut+ = 0, nuEff+ = 1, y+ = 13.0584, u+ = 13.0584, k+ = 0.585854, epsilon+ = 0.00402506, omega+ = 0.0763378
ExecutionTime = 0.234958 s  ClockTime = 1 s

Time = 92s

DICPCG:  Solving for Ux, Initial residual = 0.114262, Final residual = 6.83354e-08, No Iterations 3
DICPCG:  Solving for Uy, Initial residual = 0, Final residual = 0, No Iterations 0
smoothSolver:  Solving for epsilon, Initial residual = 0.123572, Final residual = 5.50287e-07, No Iterations 4
smoothSolver:  Solving for k, Initial residual = 0.116087, Final residual = 7.5391e-07, No Iterations 5
Uncorrected Ubar = 11.9222, pressure gradient = -31.0415
Rey = 79.8279, uTau = 0.142954, nut+ = 0, nuEff+ = 1, y+ = 8.93465, u+ = 8.93465, k+ = 1.99159, epsilon+ = 0.0313535, omega+ = 0.174922
ExecutionTime = 0.236155 s  ClockTime = 1 s

Time = 93s

DICPCG:  Solving for Ux, Initial residual = 0.0860966, Final residual = 7.30836e-08, No Iterations 3
DICPCG:  Solving for Uy, Initial residual = 0, Final residual = 0, No Iterations 0
smoothSolver:  Solving for epsilon, Initial residual = 0.111712, Final residual = 2.11292e-07, No Iterations 4
smoothSolver:  Solving for k, Initial residual = 0.0683521, Final residual = 2.34145e-07, No Iterations 6
Uncorrected Ubar = 8.10245, pressure gradient = 31.4203
Rey = 196.625, uTau = 0.224357, nut+ = 0, nuEff+ = 1, y+ = 14.0223, u+ = 14.0223, k+ = 1.18206, epsilon+ = 0.00822445, omega+ = 0.0773082
ExecutionTime = 0.23762 s  ClockTime = 1 s

Time = 94s

DICPCG:  Solving for Ux, Initial residual = 0.0824289, Final residual = 7.44851e-08, No Iterations 3
DICPCG:  Solving for Uy, Initial residual = 0, Final residual = 0, No Iterations 0
smoothSolver:  Solving for epsilon, Initial residual = 0.122039, Final residual = 1.16009e-07, No Iterations 5
smoothSolver:  Solving for k, Initial residual = 0.102654, Final residual = 6.00445e-07, No Iterations 6
Uncorrected Ubar = 11.848, pressure gradient = -30.3996
Rey = 100.119, uTau = 0.160095, nut+ = 0, nuEff+ = 1, y+ = 10.0059, u+ = 10.0059, k+ = 3.09532, epsilon+ = 0.0463745, omega+ = 0.166468
ExecutionTime = 0.239754 s  ClockTime = 1 s

Time = 95s

DICPCG:  Solving for Ux, Initial residual = 0.0608585, Final residual = 4.98568e-08, No Iterations 3
DICPCG:  Solving for Uy, Initial residual = 0, Final residual = 0, No Iterations 0
smoothSolver:  Solving for epsilon, Initial residual = 0.0969874, Final residual = 3.06111e-07, No Iterations 4
smoothSolver:  Solving for k, Initial residual = 0.0473762, Final residual = 2.65215e-07, No Iterations 7
Uncorrected Ubar = 8.17098, pressure gradient = 30.9114
Rey = 213.582, uTau = 0.233831, nut+ = 0, nuEff+ = 1, y+ = 14.6144, u+ = 14.6144, k+ = 1.78866, epsilon+ = 0.0135869, omega+ = 0.0844016
ExecutionTime = 0.24099 s  ClockTime = 1 s

Time = 96s

DICPCG:  Solving for Ux, Initial residual = 0.0601556, Final residual = 5.91947e-08, No Iterations 3
DICPCG:  Solving for Uy, Initial residual = 0, Final residual = 0, No Iterations 0
smoothSolver:  Solving for epsilon, Initial residual = 0.125893, Final residual = 3.15167e-07, No Iterations 5
smoothSolver:  Solving for k, Initial residual = 0.0840601, Final residual = 4.56206e-07, No Iterations 7
Uncorrected Ubar = 11.7839, pressure gradient = -29.8185
Rey = 115.007, uTau = 0.171637, nut+ = 0.000591806, nuEff+ = 1.00059, y+ = 10.7273, u+ = 10.721, k+ = 3.8567, epsilon+ = 0.0576977, omega+ = 0.166227
ExecutionTime = 0.245838 s  ClockTime = 1 s

Time = 97s

DICPCG:  Solving for Ux, Initial residual = 0.0438958, Final residual = 4.1605e-08, No Iterations 3
DICPCG:  Solving for Uy, Initial residual = 0, Final residual = 0, No Iterations 0
smoothSolver:  Solving for epsilon, Initial residual = 0.0775433, Final residual = 2.15402e-07, No Iterations 5
smoothSolver:  Solving for k, Initial residual = 0.0744834, Final residual = 2.45205e-07, No Iterations 7
Uncorrected Ubar = 8.2338, pressure gradient = 30.4144
Rey = 224.228, uTau = 0.257583, nut+ = 0.155862, nuEff+ = 1.15586, y+ = 16.099, u+ = 13.9281, k+ = 2.46441, epsilon+ = 0.0557831, omega+ = 0.251506
ExecutionTime = 0.248514 s  ClockTime = 1 s

Time = 98s

DICPCG:  Solving for Ux, Initial residual = 0.0512509, Final residual = 1.72484e-08, No Iterations 3
DICPCG:  Solving for Uy, Initial residual = 0, Final residual = 0, No Iterations 0
smoothSolver:  Solving for epsilon, Initial residual = 0.0560391, Final residual = 2.62184e-07, No Iterations 5
smoothSolver:  Solving for k, Initial residual = 0.0716071, Final residual = 7.1864e-07, No Iterations 6
Uncorrected Ubar = 11.7241, pressure gradient = -29.1511
Rey = 123.171, uTau = 0.185974, nut+ = 0.0968737, nuEff+ = 1.09687, y+ = 11.6234, u+ = 10.5968, k+ = 4.14389, epsilon+ = 0.354427, omega+ = 0.950335
ExecutionTime = 0.250692 s  ClockTime = 1 s

Time = 99s

DICPCG:  Solving for Ux, Initial residual = 0.0423748, Final residual = 2.5623e-08, No Iterations 3
DICPCG:  Solving for Uy, Initial residual = 0, Final residual = 0, No Iterations 0
smoothSolver:  Solving for epsilon, Initial residual = 0.0456283, Final residual = 6.45689e-07, No Iterations 4
smoothSolver:  Solving for k, Initial residual = 0.0442823, Final residual = 9.37968e-07, No Iterations 6
Uncorrected Ubar = 8.29372, pressure gradient = 29.7528
Rey = 215.716, uTau = 0.257722, nut+ = 0.202765, nuEff+ = 1.20276, y+ = 16.1076, u+ = 13.3922, k+ = 2.72004, epsilon+ = 0.078865, omega+ = 0.322156
ExecutionTime = 0.252248 s  ClockTime = 1 s

Time = 100s

DICPCG:  Solving for Ux, Initial residual = 0.0441759, Final residual = 1.17186e-08, No Iterations 3
DICPCG:  Solving for Uy, Initial residual = 0, Final residual = 0, No Iterations 0
smoothSolver:  Solving for epsilon, Initial residual = 0.0486821, Final residual = 2.8316e-07, No Iterations 5
smoothSolver:  Solving for k, Initial residual = 0.0663542, Final residual = 9.75607e-07, No Iterations 6
Uncorrected Ubar = 11.6586, pressure gradient = -28.4248
Rey = 121.846, uTau = 0.186687, nut+ = 0.117322, nuEff+ = 1.11732, y+ = 11.668, u+ = 10.4428, k+ = 4.30813, epsilon+ = 0.405393, omega+ = 1.04555
ExecutionTime = 0.253862 s  ClockTime = 1 s

Time = 101s

DICPCG:  Solving for Ux, Initial residual = 0.0358883, Final residual = 2.27721e-08, No Iterations 3
DICPCG:  Solving for Uy, Initial residual = 0, Final residual = 0, No Iterations 0
smoothSolver:  Solving for epsilon, Initial residual = 0.0435359, Final residual = 8.25475e-07, No Iterations 4
smoothSolver:  Solving for k, Initial residual = 0.0363785, Final residual = 2.68208e-07, No Iterations 7
Uncorrected Ubar = 8.3609, pressure gradient = 29.048
Rey = 212.089, uTau = 0.256405, nut+ = 0.210862, nuEff+ = 1.21086, y+ = 16.0253, u+ = 13.2346, k+ = 2.79462, epsilon+ = 0.0863158, omega+ = 0.343182
ExecutionTime = 0.255703 s  ClockTime = 1 s

Time = 102s

DICPCG:  Solving for Ux, Initial residual = 0.0379503, Final residual = 1.39964e-08, No Iterations 3
DICPCG:  Solving for Uy, Initial residual = 0, Final residual = 0, No Iterations 0
smoothSolver:  Solving for epsilon, Initial residual = 0.0434947, Final residual = 3.65092e-07, No Iterations 5
smoothSolver:  Solving for k, Initial residual = 0.0586873, Final residual = 2.98543e-07, No Iterations 7
Uncorrected Ubar = 11.5914, pressure gradient = -27.6581
Rey = 123.576, uTau = 0.188747, nut+ = 0.126129, nuEff+ = 1.12613, y+ = 11.7967, u+ = 10.4754, k+ = 4.29872, epsilon+ = 0.397888, omega+ = 1.02844
ExecutionTime = 0.257186 s  ClockTime = 1 s

Time = 103s

DICPCG:  Solving for Ux, Initial residual = 0.0305553, Final residual = 2.70032e-08, No Iterations 3
DICPCG:  Solving for Uy, Initial residual = 0, Final residual = 0, No Iterations 0
smoothSolver:  Solving for epsilon, Initial residual = 0.0409857, Final residual = 8.22724e-07, No Iterations 4
smoothSolver:  Solving for k, Initial residual = 0.034169, Final residual = 3.64441e-07, No Iterations 7
Uncorrected Ubar = 8.42957, pressure gradient = 28.3214
Rey = 210.924, uTau = 0.256228, nut+ = 0.215868, nuEff+ = 1.21587, y+ = 16.0142, u+ = 13.171, k+ = 2.82755, epsilon+ = 0.0891587, omega+ = 0.350358
ExecutionTime = 0.26315 s  ClockTime = 1 s

Time = 104s

DICPCG:  Solving for Ux, Initial residual = 0.032662, Final residual = 1.1284e-08, No Iterations 3
DICPCG:  Solving for Uy, Initial residual = 0, Final residual = 0, No Iterations 0
smoothSolver:  Solving for epsilon, Initial residual = 0.040787, Final residual = 4.72904e-07, No Iterations 5
smoothSolver:  Solving for k, Initial residual = 0.052505, Final residual = 4.0895e-07, No Iterations 7
Uncorrected Ubar = 11.5237, pressure gradient = -26.8689
Rey = 126.795, uTau = 0.19205, nut+ = 0.136285, nuEff+ = 1.13628, y+ = 12.0032, u+ = 10.5635, k+ = 4.24693, epsilon+ = 0.377007, omega+ = 0.986351
ExecutionTime = 0.266272 s  ClockTime = 1 s

Time = 105s

DICPCG:  Solving for Ux, Initial residual = 0.0262118, Final residual = 1.76418e-08, No Iterations 3
DICPCG:  Solving for Uy, Initial residual = 0, Final residual = 0, No Iterations 0
smoothSolver:  Solving for epsilon, Initial residual = 0.0402447, Final residual = 1.44407e-07, No Iterations 5
smoothSolver:  Solving for k, Initial residual = 0.0326392, Final residual = 4.66127e-07, No Iterations 7
Uncorrected Ubar = 8.49738, pressure gradient = 27.5751
Rey = 210.751, uTau = 0.256847, nut+ = 0.22276, nuEff+ = 1.22276, y+ = 16.053, u+ = 13.1285, k+ = 2.85401, epsilon+ = 0.0913432, omega+ = 0.355613
ExecutionTime = 0.268283 s  ClockTime = 1 s

Time = 106s

DICPCG:  Solving for Ux, Initial residual = 0.0282435, Final residual = 9.75545e-07, No Iterations 2
DICPCG:  Solving for Uy, Initial residual = 0, Final residual = 0, No Iterations 0
smoothSolver:  Solving for epsilon, Initial residual = 0.0375908, Final residual = 5.7047e-07, No Iterations 5
smoothSolver:  Solving for k, Initial residual = 0.0468293, Final residual = 5.04041e-07, No Iterations 7
Uncorrected Ubar = 11.4569, pressure gradient = -26.066
Rey = 130.531, uTau = 0.195851, nut+ = 0.147888, nuEff+ = 1.14789, y+ = 12.2407, u+ = 10.6637, k+ = 4.18932, epsilon+ = 0.35606, omega+ = 0.944357
ExecutionTime = 0.271979 s  ClockTime = 1 s

Time = 107s

DICPCG:  Solving for Ux, Initial residual = 0.0226741, Final residual = 2.52814e-08, No Iterations 3
DICPCG:  Solving for Uy, Initial residual = 0, Final residual = 0, No Iterations 0
smoothSolver:  Solving for epsilon, Initial residual = 0.0355345, Final residual = 1.87885e-07, No Iterations 5
smoothSolver:  Solving for k, Initial residual = 0.0305903, Final residual = 5.75875e-07, No Iterations 7
Uncorrected Ubar = 8.56521, pressure gradient = 26.8203
Rey = 210.805, uTau = 0.257694, nut+ = 0.230514, nuEff+ = 1.23051, y+ = 16.1059, u+ = 13.0887, k+ = 2.88049, epsilon+ = 0.093669, omega+ = 0.361316
ExecutionTime = 0.274019 s  ClockTime = 1 s

Time = 108s

DICPCG:  Solving for Ux, Initial residual = 0.0245357, Final residual = 8.36339e-07, No Iterations 2
DICPCG:  Solving for Uy, Initial residual = 0, Final residual = 0, No Iterations 0
smoothSolver:  Solving for epsilon, Initial residual = 0.0362326, Final residual = 6.82132e-07, No Iterations 5
smoothSolver:  Solving for k, Initial residual = 0.043878, Final residual = 6.13701e-07, No Iterations 7
Uncorrected Ubar = 11.3895, pressure gradient = -25.2397
Rey = 134.422, uTau = 0.199778, nut+ = 0.159801, nuEff+ = 1.1598, y+ = 12.4861, u+ = 10.7657, k+ = 4.13203, epsilon+ = 0.336775, omega+ = 0.905594
ExecutionTime = 0.277957 s  ClockTime = 1 s

Time = 109s

DICPCG:  Solving for Ux, Initial residual = 0.0197851, Final residual = 1.4435e-08, No Iterations 3
DICPCG:  Solving for Uy, Initial residual = 0, Final residual = 0, No Iterations 0
smoothSolver:  Solving for epsilon, Initial residual = 0.0344091, Final residual = 2.87246e-07, No Iterations 5
smoothSolver:  Solving for k, Initial residual = 0.0299995, Final residual = 6.54884e-07, No Iterations 7
Uncorrected Ubar = 8.632, pressure gradient = 26.051
Rey = 210.971, uTau = 0.258622, nut+ = 0.238422, nuEff+ = 1.23842, y+ = 16.1639, u+ = 13.052, k+ = 2.90604, epsilon+ = 0.0959939, omega+ = 0.367028
ExecutionTime = 0.280211 s  ClockTime = 1 s

Time = 110s

DICPCG:  Solving for Ux, Initial residual = 0.0214713, Final residual = 7.0679e-07, No Iterations 2
DICPCG:  Solving for Uy, Initial residual = 0, Final residual = 0, No Iterations 0
smoothSolver:  Solving for epsilon, Initial residual = 0.0333741, Final residual = 7.32662e-07, No Iterations 5
smoothSolver:  Solving for k, Initial residual = 0.0393425, Final residual = 6.89359e-07, No Iterations 7
Uncorrected Ubar = 11.325, pressure gradient = -24.4271
Rey = 138.217, uTau = 0.203587, nut+ = 0.171382, nuEff+ = 1.17138, y+ = 12.7242, u+ = 10.8625, k+ = 4.07935, epsilon+ = 0.319867, omega+ = 0.871236
ExecutionTime = 0.284076 s  ClockTime = 1 s

Time = 111s

DICPCG:  Solving for Ux, Initial residual = 0.0173494, Final residual = 2.23648e-08, No Iterations 3
DICPCG:  Solving for Uy, Initial residual = 0, Final residual = 0, No Iterations 0
smoothSolver:  Solving for epsilon, Initial residual = 0.0303261, Final residual = 3.23442e-07, No Iterations 5
smoothSolver:  Solving for k, Initial residual = 0.0267164, Final residual = 7.7212e-07, No Iterations 7
Uncorrected Ubar = 8.69717, pressure gradient = 25.2789
Rey = 211.088, uTau = 0.259481, nut+ = 0.245973, nuEff+ = 1.24597, y+ = 16.2176, u+ = 13.016, k+ = 2.93103, epsilon+ = 0.09834, omega+ = 0.372792
ExecutionTime = 0.28717 s  ClockTime = 1 s

Time = 112s

DICPCG:  Solving for Ux, Initial residual = 0.0188273, Final residual = 6.41491e-07, No Iterations 2
DICPCG:  Solving for Uy, Initial residual = 0, Final residual = 0, No Iterations 0
smoothSolver:  Solving for epsilon, Initial residual = 0.0327999, Final residual = 8.53555e-07, No Iterations 5
smoothSolver:  Solving for k, Initial residual = 0.0377052, Final residual = 7.90127e-07, No Iterations 7
Uncorrected Ubar = 11.2591, pressure gradient = -23.5757
Rey = 142.078, uTau = 0.207406, nut+ = 0.182708, nuEff+ = 1.18271, y+ = 12.9629, u+ = 10.9604, k+ = 4.02651, epsilon+ = 0.303792, omega+ = 0.838313
ExecutionTime = 0.288996 s  ClockTime = 1 s

Time = 113s

DICPCG:  Solving for Ux, Initial residual = 0.0153316, Final residual = 1.32134e-08, No Iterations 3
DICPCG:  Solving for Uy, Initial residual = 0, Final residual = 0, No Iterations 0
smoothSolver:  Solving for epsilon, Initial residual = 0.0287979, Final residual = 4.42898e-07, No Iterations 5
smoothSolver:  Solving for k, Initial residual = 0.0272123, Final residual = 8.28074e-07, No Iterations 7
Uncorrected Ubar = 8.76232, pressure gradient = 24.5022
Rey = 211.256, uTau = 0.260355, nut+ = 0.253377, nuEff+ = 1.25338, y+ = 16.2722, u+ = 12.9827, k+ = 2.95482, epsilon+ = 0.100604, omega+ = 0.378304
ExecutionTime = 0.290362 s  ClockTime = 1 s

Time = 114s

DICPCG:  Solving for Ux, Initial residual = 0.016639, Final residual = 5.391e-07, No Iterations 2
DICPCG:  Solving for Uy, Initial residual = 0, Final residual = 0, No Iterations 0
smoothSolver:  Solving for epsilon, Initial residual = 0.0301323, Final residual = 8.6202e-07, No Iterations 5
smoothSolver:  Solving for k, Initial residual = 0.0337593, Final residual = 8.52182e-07, No Iterations 7
Uncorrected Ubar = 11.1977, pressure gradient = -22.7682
Rey = 145.704, uTau = 0.210987, nut+ = 0.193443, nuEff+ = 1.19344, y+ = 13.1867, u+ = 11.0493, k+ = 3.98015, epsilon+ = 0.29006, omega+ = 0.809742
ExecutionTime = 0.292465 s  ClockTime = 1 s

Time = 115s

DICPCG:  Solving for Ux, Initial residual = 0.0135902, Final residual = 1.94392e-08, No Iterations 3
DICPCG:  Solving for Uy, Initial residual = 0, Final residual = 0, No Iterations 0
smoothSolver:  Solving for epsilon, Initial residual = 0.0265061, Final residual = 4.58121e-07, No Iterations 5
smoothSolver:  Solving for k, Initial residual = 0.0235112, Final residual = 9.49066e-07, No Iterations 7
Uncorrected Ubar = 8.82397, pressure gradient = 23.7218
Rey = 211.373, uTau = 0.261147, nut+ = 0.260319, nuEff+ = 1.26032, y+ = 16.3217, u+ = 12.9504, k+ = 2.97773, epsilon+ = 0.102824, omega+ = 0.383678
ExecutionTime = 0.296536 s  ClockTime = 1 s

Time = 116s

DICPCG:  Solving for Ux, Initial residual = 0.014701, Final residual = 4.83443e-07, No Iterations 2
DICPCG:  Solving for Uy, Initial residual = 0, Final residual = 0, No Iterations 0
smoothSolver:  Solving for epsilon, Initial residual = 0.0301339, Final residual = 9.94732e-07, No Iterations 5
smoothSolver:  Solving for k, Initial residual = 0.0328585, Final residual = 9.41464e-07, No Iterations 7
Uncorrected Ubar = 11.1341, pressure gradient = -21.901
Rey = 149.441, uTau = 0.214619, nut+ = 0.203998, nuEff+ = 1.204, y+ = 13.4137, u+ = 11.141, k+ = 3.93239, epsilon+ = 0.276585, omega+ = 0.781501
ExecutionTime = 0.298689 s  ClockTime = 1 s

Time = 117s

DICPCG:  Solving for Ux, Initial residual = 0.0121183, Final residual = 9.87779e-07, No Iterations 2
DICPCG:  Solving for Uy, Initial residual = 0, Final residual = 0, No Iterations 0
smoothSolver:  Solving for epsilon, Initial residual = 0.0241528, Final residual = 5.86906e-07, No Iterations 5
smoothSolver:  Solving for k, Initial residual = 0.0247678, Final residual = 9.90901e-07, No Iterations 7
Uncorrected Ubar = 8.88684, pressure gradient = 22.9493
Rey = 211.524, uTau = 0.261948, nut+ = 0.267153, nuEff+ = 1.26715, y+ = 16.3717, u+ = 12.9201, k+ = 2.99979, epsilon+ = 0.10499, omega+ = 0.388879
ExecutionTime = 0.300062 s  ClockTime = 1 s

Time = 118s

DICPCG:  Solving for Ux, Initial residual = 0.0130875, Final residual = 5.23053e-07, No Iterations 2
DICPCG:  Solving for Uy, Initial residual = 0, Final residual = 0, No Iterations 0
smoothSolver:  Solving for epsilon, Initial residual = 0.0275374, Final residual = 9.82111e-07, No Iterations 5
smoothSolver:  Solving for k, Initial residual = 0.0295516, Final residual = 9.99439e-07, No Iterations 7
Uncorrected Ubar = 11.0762, pressure gradient = -21.1066
Rey = 152.857, uTau = 0.217948, nut+ = 0.213885, nuEff+ = 1.21389, y+ = 13.6217, u+ = 11.2216, k+ = 3.89209, epsilon+ = 0.265393, omega+ = 0.757642
ExecutionTime = 0.302034 s  ClockTime = 1 s

Time = 119s

DICPCG:  Solving for Ux, Initial residual = 0.0108314, Final residual = 1.67595e-08, No Iterations 3
DICPCG:  Solving for Uy, Initial residual = 0, Final residual = 0, No Iterations 0
smoothSolver:  Solving for epsilon, Initial residual = 0.0236377, Final residual = 5.81398e-07, No Iterations 5
smoothSolver:  Solving for k, Initial residual = 0.0211578, Final residual = 3.0987e-07, No Iterations 8
Uncorrected Ubar = 8.9447, pressure gradient = 22.1678
Rey = 211.634, uTau = 0.262672, nut+ = 0.273514, nuEff+ = 1.27351, y+ = 16.417, u+ = 12.8911, k+ = 3.02079, epsilon+ = 0.107076, omega+ = 0.393849
ExecutionTime = 0.303818 s  ClockTime = 1 s

Time = 120s

DICPCG:  Solving for Ux, Initial residual = 0.0116323, Final residual = 3.54899e-07, No Iterations 2
DICPCG:  Solving for Uy, Initial residual = 0, Final residual = 0, No Iterations 0
smoothSolver:  Solving for epsilon, Initial residual = 0.028018, Final residual = 2.45803e-07, No Iterations 6
smoothSolver:  Solving for k, Initial residual = 0.0290958, Final residual = 3.00999e-07, No Iterations 8
Uncorrected Ubar = 11.0154, pressure gradient = -20.23
Rey = 156.431, uTau = 0.221369, nut+ = 0.223689, nuEff+ = 1.22369, y+ = 13.8356, u+ = 11.3064, k+ = 3.84944, epsilon+ = 0.254082, omega+ = 0.733387
[...]
ExecutionTime = 8.22321 s  ClockTime = 9 s

Time = 2971s

DICPCG:  Solving for Ux, Initial residual = 3.96818e-06, Final residual = 8.00608e-10, No Iterations 1
DICPCG:  Solving for Uy, Initial residual = 0, Final residual = 0, No Iterations 0
smoothSolver:  Solving for epsilon, Initial residual = 3.43689e-06, Final residual = 3.27845e-07, No Iterations 2
smoothSolver:  Solving for k, Initial residual = 6.72106e-05, Final residual = 7.76629e-07, No Iterations 4
Uncorrected Ubar = 10, pressure gradient = 3.91482
Rey = 377.857, uTau = 0.442326, nut+ = 1.02263, nuEff+ = 2.02263, y+ = 27.6453, u+ = 13.668, k+ = 3.33037, epsilon+ = 0.0881084, omega+ = 0.293956
ExecutionTime = 8.22532 s  ClockTime = 9 s

Time = 2972s

DICPCG:  Solving for Ux, Initial residual = 3.91961e-06, Final residual = 7.83687e-10, No Iterations 1
DICPCG:  Solving for Uy, Initial residual = 0, Final residual = 0, No Iterations 0
smoothSolver:  Solving for epsilon, Initial residual = 3.42285e-06, Final residual = 3.26326e-07, No Iterations 2
smoothSolver:  Solving for k, Initial residual = 6.70264e-05, Final residual = 7.74523e-07, No Iterations 4
Uncorrected Ubar = 10, pressure gradient = 3.91486
Rey = 377.856, uTau = 0.442325, nut+ = 1.02263, nuEff+ = 2.02263, y+ = 27.6453, u+ = 13.668, k+ = 3.33037, epsilon+ = 0.0881085, omega+ = 0.293956
ExecutionTime = 8.22652 s  ClockTime = 9 s

Time = 2973s

DICPCG:  Solving for Ux, Initial residual = 3.87286e-06, Final residual = 7.67255e-10, No Iterations 1
DICPCG:  Solving for Uy, Initial residual = 0, Final residual = 0, No Iterations 0
smoothSolver:  Solving for epsilon, Initial residual = 3.4088e-06, Final residual = 3.24806e-07, No Iterations 2
smoothSolver:  Solving for k, Initial residual = 6.68412e-05, Final residual = 7.72405e-07, No Iterations 4
Uncorrected Ubar = 10, pressure gradient = 3.9149
Rey = 377.856, uTau = 0.442324, nut+ = 1.02263, nuEff+ = 2.02263, y+ = 27.6453, u+ = 13.668, k+ = 3.33037, epsilon+ = 0.0881086, omega+ = 0.293956
ExecutionTime = 8.23042 s  ClockTime = 9 s

Time = 2974s

DICPCG:  Solving for Ux, Initial residual = 3.82759e-06, Final residual = 7.51253e-10, No Iterations 1
DICPCG:  Solving for Uy, Initial residual = 0, Final residual = 0, No Iterations 0
smoothSolver:  Solving for epsilon, Initial residual = 3.39472e-06, Final residual = 3.23286e-07, No Iterations 2
smoothSolver:  Solving for k, Initial residual = 6.6655e-05, Final residual = 7.70276e-07, No Iterations 4
Uncorrected Ubar = 10, pressure gradient = 3.91495
Rey = 377.855, uTau = 0.442324, nut+ = 1.02262, nuEff+ = 2.02262, y+ = 27.6452, u+ = 13.668, k+ = 3.33037, epsilon+ = 0.0881087, omega+ = 0.293957
ExecutionTime = 8.23248 s  ClockTime = 9 s

Time = 2975s

DICPCG:  Solving for Ux, Initial residual = 3.78248e-06, Final residual = 7.34465e-10, No Iterations 1
DICPCG:  Solving for Uy, Initial residual = 0, Final residual = 0, No Iterations 0
smoothSolver:  Solving for epsilon, Initial residual = 3.38063e-06, Final residual = 3.21765e-07, No Iterations 2
smoothSolver:  Solving for k, Initial residual = 6.64679e-05, Final residual = 7.68135e-07, No Iterations 4
Uncorrected Ubar = 10, pressure gradient = 3.91499
Rey = 377.855, uTau = 0.442323, nut+ = 1.02262, nuEff+ = 2.02262, y+ = 27.6452, u+ = 13.668, k+ = 3.33037, epsilon+ = 0.0881088, omega+ = 0.293957
ExecutionTime = 8.23396 s  ClockTime = 9 s

Time = 2976s

DICPCG:  Solving for Ux, Initial residual = 3.73754e-06, Final residual = 7.1688e-10, No Iterations 1
DICPCG:  Solving for Uy, Initial residual = 0, Final residual = 0, No Iterations 0
smoothSolver:  Solving for epsilon, Initial residual = 3.36652e-06, Final residual = 3.20243e-07, No Iterations 2
smoothSolver:  Solving for k, Initial residual = 6.62797e-05, Final residual = 7.65983e-07, No Iterations 4
Uncorrected Ubar = 10, pressure gradient = 3.91503
Rey = 377.854, uTau = 0.442323, nut+ = 1.02262, nuEff+ = 2.02262, y+ = 27.6452, u+ = 13.668, k+ = 3.33037, epsilon+ = 0.0881089, omega+ = 0.293957
ExecutionTime = 8.2352 s  ClockTime = 9 s

Time = 2977s

DICPCG:  Solving for Ux, Initial residual = 3.69275e-06, Final residual = 7.00879e-10, No Iterations 1
DICPCG:  Solving for Uy, Initial residual = 0, Final residual = 0, No Iterations 0
smoothSolver:  Solving for epsilon, Initial residual = 3.35239e-06, Final residual = 3.18721e-07, No Iterations 2
smoothSolver:  Solving for k, Initial residual = 6.60907e-05, Final residual = 7.6382e-07, No Iterations 4
Uncorrected Ubar = 10, pressure gradient = 3.91507
Rey = 377.854, uTau = 0.442322, nut+ = 1.02262, nuEff+ = 2.02262, y+ = 27.6451, u+ = 13.668, k+ = 3.33037, epsilon+ = 0.088109, omega+ = 0.293958
ExecutionTime = 8.23648 s  ClockTime = 9 s

Time = 2978s

DICPCG:  Solving for Ux, Initial residual = 3.64812e-06, Final residual = 6.84067e-10, No Iterations 1
DICPCG:  Solving for Uy, Initial residual = 0, Final residual = 0, No Iterations 0
smoothSolver:  Solving for epsilon, Initial residual = 3.33825e-06, Final residual = 3.17199e-07, No Iterations 2
smoothSolver:  Solving for k, Initial residual = 6.59007e-05, Final residual = 7.61646e-07, No Iterations 4
Uncorrected Ubar = 10, pressure gradient = 3.91511
Rey = 377.853, uTau = 0.442322, nut+ = 1.02262, nuEff+ = 2.02262, y+ = 27.6451, u+ = 13.668, k+ = 3.33037, epsilon+ = 0.0881091, omega+ = 0.293958
ExecutionTime = 8.23774 s  ClockTime = 9 s

Time = 2979s

DICPCG:  Solving for Ux, Initial residual = 3.60366e-06, Final residual = 6.66417e-10, No Iterations 1
DICPCG:  Solving for Uy, Initial residual = 0, Final residual = 0, No Iterations 0
smoothSolver:  Solving for epsilon, Initial residual = 3.32408e-06, Final residual = 9.99279e-07, No Iterations 1
smoothSolver:  Solving for k, Initial residual = 6.58805e-05, Final residual = 7.61345e-07, No Iterations 4
Uncorrected Ubar = 10, pressure gradient = 3.91515
Rey = 377.852, uTau = 0.442321, nut+ = 1.02261, nuEff+ = 2.02261, y+ = 27.6451, u+ = 13.668, k+ = 3.33037, epsilon+ = 0.0881092, omega+ = 0.293959
ExecutionTime = 8.23897 s  ClockTime = 9 s

Time = 2980s

DICPCG:  Solving for Ux, Initial residual = 3.55107e-06, Final residual = 6.49501e-10, No Iterations 1
DICPCG:  Solving for Uy, Initial residual = 0, Final residual = 0, No Iterations 0
smoothSolver:  Solving for epsilon, Initial residual = 3.375e-06, Final residual = 3.18838e-07, No Iterations 2
smoothSolver:  Solving for k, Initial residual = 6.58017e-05, Final residual = 7.60423e-07, No Iterations 4
Uncorrected Ubar = 10, pressure gradient = 3.91522
Rey = 377.852, uTau = 0.44232, nut+ = 1.02261, nuEff+ = 2.02261, y+ = 27.645, u+ = 13.668, k+ = 3.33037, epsilon+ = 0.0881093, omega+ = 0.293959
ExecutionTime = 8.24025 s  ClockTime = 9 s

Time = 2981s

DICPCG:  Solving for Ux, Initial residual = 3.51209e-06, Final residual = 6.27929e-10, No Iterations 1
DICPCG:  Solving for Uy, Initial residual = 0, Final residual = 0, No Iterations 0
smoothSolver:  Solving for epsilon, Initial residual = 3.34581e-06, Final residual = 3.16879e-07, No Iterations 2
smoothSolver:  Solving for k, Initial residual = 6.55906e-05, Final residual = 7.58061e-07, No Iterations 4
Uncorrected Ubar = 10, pressure gradient = 3.91523
Rey = 377.851, uTau = 0.44232, nut+ = 1.02261, nuEff+ = 2.02261, y+ = 27.645, u+ = 13.668, k+ = 3.33037, epsilon+ = 0.0881094, omega+ = 0.293959
ExecutionTime = 8.24161 s  ClockTime = 9 s

Time = 2982s

DICPCG:  Solving for Ux, Initial residual = 3.47245e-06, Final residual = 6.13533e-10, No Iterations 1
DICPCG:  Solving for Uy, Initial residual = 0, Final residual = 0, No Iterations 0
smoothSolver:  Solving for epsilon, Initial residual = 3.32303e-06, Final residual = 9.97741e-07, No Iterations 1
smoothSolver:  Solving for k, Initial residual = 6.55526e-05, Final residual = 7.57581e-07, No Iterations 4
Uncorrected Ubar = 10, pressure gradient = 3.91529
Rey = 377.851, uTau = 0.442319, nut+ = 1.02261, nuEff+ = 2.02261, y+ = 27.6449, u+ = 13.668, k+ = 3.33037, epsilon+ = 0.0881095, omega+ = 0.29396
ExecutionTime = 8.24328 s  ClockTime = 9 s

Time = 2983s

DICPCG:  Solving for Ux, Initial residual = 3.42244e-06, Final residual = 5.99624e-10, No Iterations 1
DICPCG:  Solving for Uy, Initial residual = 0, Final residual = 0, No Iterations 0
smoothSolver:  Solving for epsilon, Initial residual = 3.3725e-06, Final residual = 3.17984e-07, No Iterations 2
smoothSolver:  Solving for k, Initial residual = 6.54594e-05, Final residual = 7.565e-07, No Iterations 4
Uncorrected Ubar = 10, pressure gradient = 3.91533
Rey = 377.85, uTau = 0.442319, nut+ = 1.0226, nuEff+ = 2.0226, y+ = 27.6449, u+ = 13.668, k+ = 3.33037, epsilon+ = 0.0881096, omega+ = 0.29396
ExecutionTime = 8.2482 s  ClockTime = 9 s

Time = 2984s

DICPCG:  Solving for Ux, Initial residual = 3.3838e-06, Final residual = 5.94806e-10, No Iterations 1
DICPCG:  Solving for Uy, Initial residual = 0, Final residual = 0, No Iterations 0
smoothSolver:  Solving for epsilon, Initial residual = 3.3387e-06, Final residual = 3.15797e-07, No Iterations 2
smoothSolver:  Solving for k, Initial residual = 6.52341e-05, Final residual = 7.53984e-07, No Iterations 4
Uncorrected Ubar = 10, pressure gradient = 3.91537
Rey = 377.85, uTau = 0.442318, nut+ = 1.0226, nuEff+ = 2.0226, y+ = 27.6449, u+ = 13.668, k+ = 3.33037, epsilon+ = 0.0881097, omega+ = 0.29396
ExecutionTime = 8.24948 s  ClockTime = 9 s

Time = 2985s

DICPCG:  Solving for Ux, Initial residual = 3.34515e-06, Final residual = 5.95013e-10, No Iterations 1
DICPCG:  Solving for Uy, Initial residual = 0, Final residual = 0, No Iterations 0
smoothSolver:  Solving for epsilon, Initial residual = 3.31521e-06, Final residual = 9.94165e-07, No Iterations 1
smoothSolver:  Solving for k, Initial residual = 6.51836e-05, Final residual = 7.53356e-07, No Iterations 4
Uncorrected Ubar = 10, pressure gradient = 3.91541
Rey = 377.849, uTau = 0.442317, nut+ = 1.0226, nuEff+ = 2.0226, y+ = 27.6448, u+ = 13.668, k+ = 3.33037, epsilon+ = 0.0881098, omega+ = 0.293961
ExecutionTime = 8.25089 s  ClockTime = 9 s

Time = 2986s

DICPCG:  Solving for Ux, Initial residual = 3.29707e-06, Final residual = 6.07477e-10, No Iterations 1
DICPCG:  Solving for Uy, Initial residual = 0, Final residual = 0, No Iterations 0
smoothSolver:  Solving for epsilon, Initial residual = 3.36172e-06, Final residual = 3.16557e-07, No Iterations 2
smoothSolver:  Solving for k, Initial residual = 6.50776e-05, Final residual = 7.52131e-07, No Iterations 4
Uncorrected Ubar = 10, pressure gradient = 3.91547
Rey = 377.848, uTau = 0.442317, nut+ = 1.0226, nuEff+ = 2.0226, y+ = 27.6448, u+ = 13.668, k+ = 3.33037, epsilon+ = 0.0881099, omega+ = 0.293961
ExecutionTime = 8.25217 s  ClockTime = 9 s

Time = 2987s

DICPCG:  Solving for Ux, Initial residual = 3.26199e-06, Final residual = 6.20656e-10, No Iterations 1
DICPCG:  Solving for Uy, Initial residual = 0, Final residual = 0, No Iterations 0
smoothSolver:  Solving for epsilon, Initial residual = 3.3274e-06, Final residual = 9.9621e-07, No Iterations 1
smoothSolver:  Solving for k, Initial residual = 6.50122e-05, Final residual = 7.51365e-07, No Iterations 4
Uncorrected Ubar = 10, pressure gradient = 3.91548
Rey = 377.848, uTau = 0.442316, nut+ = 1.02259, nuEff+ = 2.02259, y+ = 27.6448, u+ = 13.668, k+ = 3.33037, epsilon+ = 0.08811, omega+ = 0.293962
ExecutionTime = 8.25338 s  ClockTime = 9 s

Time = 2988s

DICPCG:  Solving for Ux, Initial residual = 3.21658e-06, Final residual = 6.30954e-10, No Iterations 1
DICPCG:  Solving for Uy, Initial residual = 0, Final residual = 0, No Iterations 0
smoothSolver:  Solving for epsilon, Initial residual = 3.36809e-06, Final residual = 3.16798e-07, No Iterations 2
smoothSolver:  Solving for k, Initial residual = 6.48929e-05, Final residual = 7.50004e-07, No Iterations 4
Uncorrected Ubar = 10, pressure gradient = 3.91556
Rey = 377.847, uTau = 0.442316, nut+ = 1.02259, nuEff+ = 2.02259, y+ = 27.6447, u+ = 13.668, k+ = 3.33037, epsilon+ = 0.0881101, omega+ = 0.293962
ExecutionTime = 8.25474 s  ClockTime = 9 s

Time = 2989s

DICPCG:  Solving for Ux, Initial residual = 3.18197e-06, Final residual = 6.46749e-10, No Iterations 1
DICPCG:  Solving for Uy, Initial residual = 0, Final residual = 0, No Iterations 0
smoothSolver:  Solving for epsilon, Initial residual = 3.33248e-06, Final residual = 9.96772e-07, No Iterations 1
smoothSolver:  Solving for k, Initial residual = 6.48167e-05, Final residual = 7.49116e-07, No Iterations 4
Uncorrected Ubar = 10, pressure gradient = 3.91555
Rey = 377.847, uTau = 0.442315, nut+ = 1.02259, nuEff+ = 2.02259, y+ = 27.6447, u+ = 13.668, k+ = 3.33037, epsilon+ = 0.0881102, omega+ = 0.293962
ExecutionTime = 8.25613 s  ClockTime = 9 s

Time = 2990s

DICPCG:  Solving for Ux, Initial residual = 3.14096e-06, Final residual = 6.53253e-10, No Iterations 1
DICPCG:  Solving for Uy, Initial residual = 0, Final residual = 0, No Iterations 0
smoothSolver:  Solving for epsilon, Initial residual = 3.36966e-06, Final residual = 3.16704e-07, No Iterations 2
smoothSolver:  Solving for k, Initial residual = 6.46861e-05, Final residual = 7.47634e-07, No Iterations 4
Uncorrected Ubar = 10, pressure gradient = 3.91566
Rey = 377.846, uTau = 0.442314, nut+ = 1.02259, nuEff+ = 2.02259, y+ = 27.6447, u+ = 13.668, k+ = 3.33037, epsilon+ = 0.0881103, omega+ = 0.293963
ExecutionTime = 8.25772 s  ClockTime = 9 s

Time = 2991s

DICPCG:  Solving for Ux, Initial residual = 3.11271e-06, Final residual = 6.70996e-10, No Iterations 1
DICPCG:  Solving for Uy, Initial residual = 0, Final residual = 0, No Iterations 0
smoothSolver:  Solving for epsilon, Initial residual = 3.33374e-06, Final residual = 9.96324e-07, No Iterations 1
smoothSolver:  Solving for k, Initial residual = 6.46004e-05, Final residual = 7.46634e-07, No Iterations 4
Uncorrected Ubar = 10, pressure gradient = 3.91562
Rey = 377.846, uTau = 0.442314, nut+ = 1.02259, nuEff+ = 2.02259, y+ = 27.6446, u+ = 13.668, k+ = 3.33036, epsilon+ = 0.0881104, omega+ = 0.293963
ExecutionTime = 8.25892 s  ClockTime = 9 s

Time = 2992s

DICPCG:  Solving for Ux, Initial residual = 3.07305e-06, Final residual = 6.74184e-10, No Iterations 1
DICPCG:  Solving for Uy, Initial residual = 0, Final residual = 0, No Iterations 0
smoothSolver:  Solving for epsilon, Initial residual = 3.36814e-06, Final residual = 3.16338e-07, No Iterations 2
smoothSolver:  Solving for k, Initial residual = 6.44597e-05, Final residual = 7.4504e-07, No Iterations 4
Uncorrected Ubar = 10, pressure gradient = 3.91575
Rey = 377.845, uTau = 0.442313, nut+ = 1.02258, nuEff+ = 2.02258, y+ = 27.6446, u+ = 13.668, k+ = 3.33036, epsilon+ = 0.0881105, omega+ = 0.293963
ExecutionTime = 8.26019 s  ClockTime = 9 s

Time = 2993s

DICPCG:  Solving for Ux, Initial residual = 3.0455e-06, Final residual = 6.93194e-10, No Iterations 1
DICPCG:  Solving for Uy, Initial residual = 0, Final residual = 0, No Iterations 0
smoothSolver:  Solving for epsilon, Initial residual = 3.33213e-06, Final residual = 9.95047e-07, No Iterations 1
smoothSolver:  Solving for k, Initial residual = 6.43652e-05, Final residual = 7.43936e-07, No Iterations 4
Uncorrected Ubar = 10, pressure gradient = 3.91569
Rey = 377.844, uTau = 0.442313, nut+ = 1.02258, nuEff+ = 2.02258, y+ = 27.6445, u+ = 13.668, k+ = 3.33036, epsilon+ = 0.0881106, omega+ = 0.293964
ExecutionTime = 8.26561 s  ClockTime = 9 s

Time = 2994s

DICPCG:  Solving for Ux, Initial residual = 3.00595e-06, Final residual = 6.94557e-10, No Iterations 1
DICPCG:  Solving for Uy, Initial residual = 0, Final residual = 0, No Iterations 0
smoothSolver:  Solving for epsilon, Initial residual = 3.36412e-06, Final residual = 3.15734e-07, No Iterations 2
smoothSolver:  Solving for k, Initial residual = 6.42152e-05, Final residual = 7.42237e-07, No Iterations 4
Uncorrected Ubar = 10, pressure gradient = 3.91584
Rey = 377.844, uTau = 0.442312, nut+ = 1.02258, nuEff+ = 2.02258, y+ = 27.6445, u+ = 13.668, k+ = 3.33036, epsilon+ = 0.0881107, omega+ = 0.293964
ExecutionTime = 8.26766 s  ClockTime = 9 s

Time = 2995s

DICPCG:  Solving for Ux, Initial residual = 2.97905e-06, Final residual = 7.13096e-10, No Iterations 1
DICPCG:  Solving for Uy, Initial residual = 0, Final residual = 0, No Iterations 0
smoothSolver:  Solving for epsilon, Initial residual = 3.32804e-06, Final residual = 9.93046e-07, No Iterations 1
smoothSolver:  Solving for k, Initial residual = 6.41125e-05, Final residual = 7.41037e-07, No Iterations 4
Uncorrected Ubar = 10, pressure gradient = 3.91576
Rey = 377.843, uTau = 0.442311, nut+ = 1.02258, nuEff+ = 2.02258, y+ = 27.6445, u+ = 13.6679, k+ = 3.33036, epsilon+ = 0.0881108, omega+ = 0.293965
ExecutionTime = 8.26956 s  ClockTime = 9 s

Time = 2996s

DICPCG:  Solving for Ux, Initial residual = 2.93964e-06, Final residual = 7.2135e-10, No Iterations 1
DICPCG:  Solving for Uy, Initial residual = 0, Final residual = 0, No Iterations 0
smoothSolver:  Solving for epsilon, Initial residual = 3.35791e-06, Final residual = 3.14918e-07, No Iterations 2
smoothSolver:  Solving for k, Initial residual = 6.39538e-05, Final residual = 7.3924e-07, No Iterations 4
Uncorrected Ubar = 10, pressure gradient = 3.91592
Rey = 377.843, uTau = 0.442311, nut+ = 1.02257, nuEff+ = 2.02257, y+ = 27.6444, u+ = 13.6679, k+ = 3.33036, epsilon+ = 0.0881109, omega+ = 0.293965
ExecutionTime = 8.27184 s  ClockTime = 9 s

Time = 2997s

DICPCG:  Solving for Ux, Initial residual = 2.91354e-06, Final residual = 7.3588e-10, No Iterations 1
DICPCG:  Solving for Uy, Initial residual = 0, Final residual = 0, No Iterations 0
smoothSolver:  Solving for epsilon, Initial residual = 3.32174e-06, Final residual = 9.90391e-07, No Iterations 1
smoothSolver:  Solving for k, Initial residual = 6.38434e-05, Final residual = 7.37948e-07, No Iterations 4
Uncorrected Ubar = 10, pressure gradient = 3.91583
Rey = 377.842, uTau = 0.44231, nut+ = 1.02257, nuEff+ = 2.02257, y+ = 27.6444, u+ = 13.6679, k+ = 3.33036, epsilon+ = 0.088111, omega+ = 0.293965
ExecutionTime = 8.27319 s  ClockTime = 9 s

Time = 2998s

DICPCG:  Solving for Ux, Initial residual = 2.88002e-06, Final residual = 7.49999e-10, No Iterations 1
DICPCG:  Solving for Uy, Initial residual = 0, Final residual = 0, No Iterations 0
smoothSolver:  Solving for epsilon, Initial residual = 3.3497e-06, Final residual = 9.97312e-07, No Iterations 1
smoothSolver:  Solving for k, Initial residual = 6.38484e-05, Final residual = 7.3794e-07, No Iterations 4
Uncorrected Ubar = 10, pressure gradient = 3.916
Rey = 377.841, uTau = 0.44231, nut+ = 1.02257, nuEff+ = 2.02257, y+ = 27.6443, u+ = 13.6679, k+ = 3.33036, epsilon+ = 0.0881111, omega+ = 0.293966
ExecutionTime = 8.27534 s  ClockTime = 9 s

Time = 2999s

DICPCG:  Solving for Ux, Initial residual = 2.85492e-06, Final residual = 7.63795e-10, No Iterations 1
DICPCG:  Solving for Uy, Initial residual = 0, Final residual = 0, No Iterations 0
smoothSolver:  Solving for epsilon, Initial residual = 3.38328e-06, Final residual = 3.15735e-07, No Iterations 2
smoothSolver:  Solving for k, Initial residual = 6.36735e-05, Final residual = 7.35965e-07, No Iterations 4
Uncorrected Ubar = 10, pressure gradient = 3.91593
Rey = 377.841, uTau = 0.442309, nut+ = 1.02257, nuEff+ = 2.02257, y+ = 27.6443, u+ = 13.6679, k+ = 3.33036, epsilon+ = 0.0881112, omega+ = 0.293966
ExecutionTime = 8.28106 s  ClockTime = 9 s

Time = 3000s

DICPCG:  Solving for Ux, Initial residual = 2.83381e-06, Final residual = 7.75711e-10, No Iterations 1
DICPCG:  Solving for Uy, Initial residual = 0, Final residual = 0, No Iterations 0
smoothSolver:  Solving for epsilon, Initial residual = 3.32376e-06, Final residual = 9.91499e-07, No Iterations 1
smoothSolver:  Solving for k, Initial residual = 6.35383e-05, Final residual = 7.34449e-07, No Iterations 4
Uncorrected Ubar = 10, pressure gradient = 3.91605
Rey = 377.84, uTau = 0.442308, nut+ = 1.02256, nuEff+ = 2.02256, y+ = 27.6443, u+ = 13.6679, k+ = 3.33036, epsilon+ = 0.0881113, omega+ = 0.293967
ExecutionTime = 8.28825 s  ClockTime = 9 s

End

