./Allrun: 102: foamDictionary: not found
./Allrun: 102: foamDictionary: not found
./Allrun: 102: foamDictionary: not found
./Allrun: 102: foamDictionary: not found
./Allrun: 102: foamDictionary: not found
./Allrun: 102: foamDictionary: not found
./Allrun: 102: foamDictionary: not found
./Allrun: 102: foamDictionary: not found
./Allrun: 102: foamDictionary: not found
./Allrun: 102: foamDictionary: not found
./Allrun: 102: foamDictionary: not found
./Allrun: 102: foamDictionary: not found
./Allrun: 102: foamDictionary: not found
./Allrun: 102: foamDictionary: not found
./Allrun: 102: foamDictionary: not found
./Allrun: 102: foamDictionary: not found
./Allrun: 102: foamDictionary: not found
./Allrun: 102: foamDictionary: not found
./Allrun: 102: foamDictionary: not found
./Allrun: 102: foamDictionary: not found
./Allrun: 102: foamDictionary: not found
./Allrun: 102: foamDictionary: not found
./Allrun: 102: foamDictionary: not found
./Allrun: 102: foamDictionary: not found
./Allrun: 102: foamDictionary: not found
./Allrun: 102: foamDictionary: not found
./Allrun: 102: foamDictionary: not found
./Allrun: 102: foamDictionary: not found
./Allrun: 102: foamDictionary: not found
./Allrun: 102: foamDictionary: not found
./Allrun: 102: foamDictionary: not found
./Allrun: 102: foamDictionary: not found
./Allrun: 102: foamDictionary: not found
./Allrun: 102: foamDictionary: not found
./Allrun: 102: foamDictionary: not found
./Allrun: 102: foamDictionary: not found
./Allrun: 102: foamDictionary: not found
./Allrun: 102: foamDictionary: not found
./Allrun: 102: foamDictionary: not found
./Allrun: 102: foamDictionary: not found
./Allrun: 102: foamDictionary: not found
./Allrun: 102: foamDictionary: not found
./Allrun: 102: foamDictionary: not found
./Allrun: 102: foamDictionary: not found
./Allrun: 102: foamDictionary: not found
./Allrun: 102: foamDictionary: not found
./Allrun: 102: foamDictionary: not found
./Allrun: 102: foamDictionary: not found
./Allrun: 102: foamDictionary: not found
./Allrun: 102: foamDictionary: not found
./Allrun: 102: foamDictionary: not found
./Allrun: 102: foamDictionary: not found
