/*---------------------------------------------------------------------------*\
  =========                 |
  \\      /  F ield         | OpenFOAM: The Open Source CFD Toolbox
   \\    /   O peration     | Website:  https://openfoam.org
    \\  /    A nd           | Version:  12
     \\/     M anipulation  |
\*---------------------------------------------------------------------------*/
Build  : 12-cc05c1b03c38
Exec   : foamRun
Date   : Oct 10 2024
Time   : 23:16:33
Host   : "DESKTOP-KBPC6IC"
PID    : 4659
I/O    : uncollated
Case   : /home/as/openfoam/OpenFOAM-12/test/multiphaseEuler/populationBalance/negativeDrift
nProcs : 1
sigFpe : Enabling floating point exception trapping (FOAM_SIGFPE).
fileModificationChecking : Monitoring run-time modified files using timeStampMaster (fileModificationSkew 10)
allowSystemOperations : Allowing user-supplied system call operations

// * * * * * * * * * * * * * * * * * * * * * * * * * * * * * * * * * * * * * //
Create time

Create mesh for time = 0

Selecting solver multiphaseEuler
Selecting phaseSystem populationBalanceMultiphaseSystem
No MRF models present

Selecting phaseModel for air: pureIsothermalPhaseModel
Selecting diameterModel for phase air: velocityGroup
Selecting thermodynamics package 
{
    type            heRhoThermo;
    mixture         pureMixture;
    transport       const;
    thermo          hConst;
    equationOfState perfectGas;
    specie          specie;
    energy          sensibleInternalEnergy;
}

Calculating face flux field phi.air
Selecting turbulence model type laminar
Selecting laminar stress model Stokes
Selecting phaseModel for water: pureIsothermalPhaseModel
Selecting diameterModel for phase water: none
Selecting thermodynamics package 
{
    type            heRhoThermo;
    mixture         pureMixture;
    transport       const;
    thermo          hConst;
    equationOfState rhoConst;
    specie          specie;
    energy          sensibleInternalEnergy;
}

Calculating face flux field phi.water
Selecting turbulence model type laminar
Selecting laminar stress model Stokes
Setting up population balance: bubbles
Selecting drift model for bubbles: constant
Courant Number mean: 0 max: 0
Creating fvModels from "constant/fvModels"

Selecting finite volume model type massSource
    Name: waterSource
    - selecting all cells
    - selected 1 cell(s) with volume 1

PIMPLE: No convergence criteria found


PIMPLE: No corrector convergence criteria found
        Calculations will do 2 corrections


PIMPLE: Operating solver in transient mode with 2 outer correctors



Starting time loop

    - selecting all cells
    - selected 1 cell(s) with volume 1
Courant Number mean: 0 max: 0
Time = 0.01s

PIMPLE: Iteration 1
MULES: Solving for alpha.air
air fraction, min, max = 0.279433 0.279433 0.279433
populationBalance bubbles: Iteration 1
diagonal:  Solving for f0.air, Initial residual = 0, Final residual = 0, No Iterations 0
diagonal:  Solving for f1.air, Initial residual = 0, Final residual = 0, No Iterations 0
diagonal:  Solving for f2.air, Initial residual = 0, Final residual = 0, No Iterations 0
diagonal:  Solving for f3.air, Initial residual = 0, Final residual = 0, No Iterations 0
diagonal:  Solving for f4.air, Initial residual = 0, Final residual = 0, No Iterations 0
diagonal:  Solving for f5.air, Initial residual = 0, Final residual = 0, No Iterations 0
diagonal:  Solving for f6.air, Initial residual = 0, Final residual = 0, No Iterations 0
diagonal:  Solving for f7.air, Initial residual = 0, Final residual = 0, No Iterations 0
diagonal:  Solving for f8.air, Initial residual = 0, Final residual = 0, No Iterations 0
diagonal:  Solving for f9.air, Initial residual = 0, Final residual = 0, No Iterations 0
diagonal:  Solving for f10.air, Initial residual = 0, Final residual = 0, No Iterations 0
diagonal:  Solving for f11.air, Initial residual = 0, Final residual = 0, No Iterations 0
diagonal:  Solving for f12.air, Initial residual = 0, Final residual = 0, No Iterations 0
diagonal:  Solving for f13.air, Initial residual = 0, Final residual = 0, No Iterations 0
diagonal:  Solving for f14.air, Initial residual = 0, Final residual = 0, No Iterations 0
diagonal:  Solving for f15.air, Initial residual = 0, Final residual = 0, No Iterations 0
diagonal:  Solving for f16.air, Initial residual = 0, Final residual = 0, No Iterations 0
diagonal:  Solving for f17.air, Initial residual = 0, Final residual = 0, No Iterations 0
diagonal:  Solving for f18.air, Initial residual = 0, Final residual = 0, No Iterations 0
diagonal:  Solving for f19.air, Initial residual = 0, Final residual = 0, No Iterations 0
diagonal:  Solving for f20.air, Initial residual = 0, Final residual = 0, No Iterations 0
diagonal:  Solving for f21.air, Initial residual = 0, Final residual = 0, No Iterations 0
diagonal:  Solving for f22.air, Initial residual = 0, Final residual = 0, No Iterations 0
diagonal:  Solving for f23.air, Initial residual = 0, Final residual = 0, No Iterations 0
diagonal:  Solving for f24.air, Initial residual = 0, Final residual = 0, No Iterations 0
diagonal:  Solving for f25.air, Initial residual = 0, Final residual = 0, No Iterations 0
diagonal:  Solving for f26.air, Initial residual = 0, Final residual = 0, No Iterations 0
diagonal:  Solving for f27.air, Initial residual = 0, Final residual = 0, No Iterations 0
diagonal:  Solving for f28.air, Initial residual = 0, Final residual = 0, No Iterations 0
bubbles sizeGroup phase fraction first, last = 0 0
air sizeGroups-sum volume fraction, min, max = 0.99999 0.99999 0.99999
air Sauter mean diameter, min, max = 2.59006 2.59006 2.59006
Constructing momentum equations
diagonal:  Solving for p_rgh, Initial residual = 0, Final residual = 0, No Iterations 0
PIMPLE: Iteration 2
MULES: Solving for alpha.air
air fraction, min, max = 0.279126 0.279126 0.279126
populationBalance bubbles: Iteration 1
diagonal:  Solving for f0.air, Initial residual = 0, Final residual = 0, No Iterations 0
diagonal:  Solving for f1.air, Initial residual = 0, Final residual = 0, No Iterations 0
diagonal:  Solving for f2.air, Initial residual = 0, Final residual = 0, No Iterations 0
diagonal:  Solving for f3.air, Initial residual = 0, Final residual = 0, No Iterations 0
diagonal:  Solving for f4.air, Initial residual = 0, Final residual = 0, No Iterations 0
diagonal:  Solving for f5.air, Initial residual = 0, Final residual = 0, No Iterations 0
diagonal:  Solving for f6.air, Initial residual = 0, Final residual = 0, No Iterations 0
diagonal:  Solving for f7.air, Initial residual = 0, Final residual = 0, No Iterations 0
diagonal:  Solving for f8.air, Initial residual = 0, Final residual = 0, No Iterations 0
diagonal:  Solving for f9.air, Initial residual = 0, Final residual = 0, No Iterations 0
diagonal:  Solving for f10.air, Initial residual = 0, Final residual = 0, No Iterations 0
diagonal:  Solving for f11.air, Initial residual = 0, Final residual = 0, No Iterations 0
diagonal:  Solving for f12.air, Initial residual = 0, Final residual = 0, No Iterations 0
diagonal:  Solving for f13.air, Initial residual = 0, Final residual = 0, No Iterations 0
diagonal:  Solving for f14.air, Initial residual = 0, Final residual = 0, No Iterations 0
diagonal:  Solving for f15.air, Initial residual = 0, Final residual = 0, No Iterations 0
diagonal:  Solving for f16.air, Initial residual = 0, Final residual = 0, No Iterations 0
diagonal:  Solving for f17.air, Initial residual = 0, Final residual = 0, No Iterations 0
diagonal:  Solving for f18.air, Initial residual = 0, Final residual = 0, No Iterations 0
diagonal:  Solving for f19.air, Initial residual = 0, Final residual = 0, No Iterations 0
diagonal:  Solving for f20.air, Initial residual = 0, Final residual = 0, No Iterations 0
diagonal:  Solving for f21.air, Initial residual = 0, Final residual = 0, No Iterations 0
diagonal:  Solving for f22.air, Initial residual = 0, Final residual = 0, No Iterations 0
diagonal:  Solving for f23.air, Initial residual = 0, Final residual = 0, No Iterations 0
diagonal:  Solving for f24.air, Initial residual = 0, Final residual = 0, No Iterations 0
diagonal:  Solving for f25.air, Initial residual = 0, Final residual = 0, No Iterations 0
diagonal:  Solving for f26.air, Initial residual = 0, Final residual = 0, No Iterations 0
diagonal:  Solving for f27.air, Initial residual = 0, Final residual = 0, No Iterations 0
diagonal:  Solving for f28.air, Initial residual = 0, Final residual = 0, No Iterations 0
bubbles sizeGroup phase fraction first, last = 0 0
air sizeGroups-sum volume fraction, min, max = 1 1 1
air Sauter mean diameter, min, max = 2.59002 2.59002 2.59002
Constructing momentum equations
diagonal:  Solving for p_rgh, Initial residual = 0, Final residual = 0, No Iterations 0
ExecutionTime = 0.212979 s  ClockTime = 0 s

Courant Number mean: 0 max: 0
Time = 0.02s

PIMPLE: Iteration 1
MULES: Solving for alpha.air
air fraction, min, max = 0.278818 0.278818 0.278818
populationBalance bubbles: Iteration 1
diagonal:  Solving for f0.air, Initial residual = 0, Final residual = 0, No Iterations 0
diagonal:  Solving for f1.air, Initial residual = 0, Final residual = 0, No Iterations 0
diagonal:  Solving for f2.air, Initial residual = 0, Final residual = 0, No Iterations 0
diagonal:  Solving for f3.air, Initial residual = 0, Final residual = 0, No Iterations 0
diagonal:  Solving for f4.air, Initial residual = 0, Final residual = 0, No Iterations 0
diagonal:  Solving for f5.air, Initial residual = 0, Final residual = 0, No Iterations 0
diagonal:  Solving for f6.air, Initial residual = 0, Final residual = 0, No Iterations 0
diagonal:  Solving for f7.air, Initial residual = 0, Final residual = 0, No Iterations 0
diagonal:  Solving for f8.air, Initial residual = 0, Final residual = 0, No Iterations 0
diagonal:  Solving for f9.air, Initial residual = 0, Final residual = 0, No Iterations 0
diagonal:  Solving for f10.air, Initial residual = 0, Final residual = 0, No Iterations 0
diagonal:  Solving for f11.air, Initial residual = 0, Final residual = 0, No Iterations 0
diagonal:  Solving for f12.air, Initial residual = 0, Final residual = 0, No Iterations 0
diagonal:  Solving for f13.air, Initial residual = 0, Final residual = 0, No Iterations 0
diagonal:  Solving for f14.air, Initial residual = 0, Final residual = 0, No Iterations 0
diagonal:  Solving for f15.air, Initial residual = 0, Final residual = 0, No Iterations 0
diagonal:  Solving for f16.air, Initial residual = 0, Final residual = 0, No Iterations 0
diagonal:  Solving for f17.air, Initial residual = 0, Final residual = 0, No Iterations 0
diagonal:  Solving for f18.air, Initial residual = 0, Final residual = 0, No Iterations 0
diagonal:  Solving for f19.air, Initial residual = 0, Final residual = 0, No Iterations 0
diagonal:  Solving for f20.air, Initial residual = 0, Final residual = 0, No Iterations 0
diagonal:  Solving for f21.air, Initial residual = 0, Final residual = 0, No Iterations 0
diagonal:  Solving for f22.air, Initial residual = 0, Final residual = 0, No Iterations 0
diagonal:  Solving for f23.air, Initial residual = 0, Final residual = 0, No Iterations 0
diagonal:  Solving for f24.air, Initial residual = 0, Final residual = 0, No Iterations 0
diagonal:  Solving for f25.air, Initial residual = 0, Final residual = 0, No Iterations 0
diagonal:  Solving for f26.air, Initial residual = 0, Final residual = 0, No Iterations 0
diagonal:  Solving for f27.air, Initial residual = 0, Final residual = 0, No Iterations 0
diagonal:  Solving for f28.air, Initial residual = 0, Final residual = 0, No Iterations 0
bubbles sizeGroup phase fraction first, last = 0 0
air sizeGroups-sum volume fraction, min, max = 0.99999 0.99999 0.99999
air Sauter mean diameter, min, max = 2.58914 2.58914 2.58914
Constructing momentum equations
diagonal:  Solving for p_rgh, Initial residual = 0, Final residual = 0, No Iterations 0
PIMPLE: Iteration 2
MULES: Solving for alpha.air
air fraction, min, max = 0.278818 0.278818 0.278818
populationBalance bubbles: Iteration 1
diagonal:  Solving for f0.air, Initial residual = 0, Final residual = 0, No Iterations 0
diagonal:  Solving for f1.air, Initial residual = 0, Final residual = 0, No Iterations 0
diagonal:  Solving for f2.air, Initial residual = 0, Final residual = 0, No Iterations 0
diagonal:  Solving for f3.air, Initial residual = 0, Final residual = 0, No Iterations 0
diagonal:  Solving for f4.air, Initial residual = 0, Final residual = 0, No Iterations 0
diagonal:  Solving for f5.air, Initial residual = 0, Final residual = 0, No Iterations 0
diagonal:  Solving for f6.air, Initial residual = 0, Final residual = 0, No Iterations 0
diagonal:  Solving for f7.air, Initial residual = 0, Final residual = 0, No Iterations 0
diagonal:  Solving for f8.air, Initial residual = 0, Final residual = 0, No Iterations 0
diagonal:  Solving for f9.air, Initial residual = 0, Final residual = 0, No Iterations 0
diagonal:  Solving for f10.air, Initial residual = 0, Final residual = 0, No Iterations 0
diagonal:  Solving for f11.air, Initial residual = 0, Final residual = 0, No Iterations 0
diagonal:  Solving for f12.air, Initial residual = 0, Final residual = 0, No Iterations 0
diagonal:  Solving for f13.air, Initial residual = 0, Final residual = 0, No Iterations 0
diagonal:  Solving for f14.air, Initial residual = 0, Final residual = 0, No Iterations 0
diagonal:  Solving for f15.air, Initial residual = 0, Final residual = 0, No Iterations 0
diagonal:  Solving for f16.air, Initial residual = 0, Final residual = 0, No Iterations 0
diagonal:  Solving for f17.air, Initial residual = 0, Final residual = 0, No Iterations 0
diagonal:  Solving for f18.air, Initial residual = 0, Final residual = 0, No Iterations 0
diagonal:  Solving for f19.air, Initial residual = 0, Final residual = 0, No Iterations 0
diagonal:  Solving for f20.air, Initial residual = 0, Final residual = 0, No Iterations 0
diagonal:  Solving for f21.air, Initial residual = 0, Final residual = 0, No Iterations 0
diagonal:  Solving for f22.air, Initial residual = 0, Final residual = 0, No Iterations 0
diagonal:  Solving for f23.air, Initial residual = 0, Final residual = 0, No Iterations 0
diagonal:  Solving for f24.air, Initial residual = 0, Final residual = 0, No Iterations 0
diagonal:  Solving for f25.air, Initial residual = 0, Final residual = 0, No Iterations 0
diagonal:  Solving for f26.air, Initial residual = 0, Final residual = 0, No Iterations 0
diagonal:  Solving for f27.air, Initial residual = 0, Final residual = 0, No Iterations 0
diagonal:  Solving for f28.air, Initial residual = 0, Final residual = 0, No Iterations 0
bubbles sizeGroup phase fraction first, last = 0 0
air sizeGroups-sum volume fraction, min, max = 0.999999 0.999999 0.999999
air Sauter mean diameter, min, max = 2.5891 2.5891 2.5891
Constructing momentum equations
diagonal:  Solving for p_rgh, Initial residual = 0, Final residual = 0, No Iterations 0
ExecutionTime = 0.242388 s  ClockTime = 0 s

Courant Number mean: 0 max: 0
Time = 0.03s

PIMPLE: Iteration 1
MULES: Solving for alpha.air
air fraction, min, max = 0.27851 0.27851 0.27851
populationBalance bubbles: Iteration 1
diagonal:  Solving for f0.air, Initial residual = 0, Final residual = 0, No Iterations 0
diagonal:  Solving for f1.air, Initial residual = 0, Final residual = 0, No Iterations 0
diagonal:  Solving for f2.air, Initial residual = 0, Final residual = 0, No Iterations 0
diagonal:  Solving for f3.air, Initial residual = 0, Final residual = 0, No Iterations 0
diagonal:  Solving for f4.air, Initial residual = 0, Final residual = 0, No Iterations 0
diagonal:  Solving for f5.air, Initial residual = 0, Final residual = 0, No Iterations 0
diagonal:  Solving for f6.air, Initial residual = 0, Final residual = 0, No Iterations 0
diagonal:  Solving for f7.air, Initial residual = 0, Final residual = 0, No Iterations 0
diagonal:  Solving for f8.air, Initial residual = 0, Final residual = 0, No Iterations 0
diagonal:  Solving for f9.air, Initial residual = 0, Final residual = 0, No Iterations 0
diagonal:  Solving for f10.air, Initial residual = 0, Final residual = 0, No Iterations 0
diagonal:  Solving for f11.air, Initial residual = 0, Final residual = 0, No Iterations 0
diagonal:  Solving for f12.air, Initial residual = 0, Final residual = 0, No Iterations 0
diagonal:  Solving for f13.air, Initial residual = 0, Final residual = 0, No Iterations 0
diagonal:  Solving for f14.air, Initial residual = 0, Final residual = 0, No Iterations 0
diagonal:  Solving for f15.air, Initial residual = 0, Final residual = 0, No Iterations 0
diagonal:  Solving for f16.air, Initial residual = 0, Final residual = 0, No Iterations 0
diagonal:  Solving for f17.air, Initial residual = 0, Final residual = 0, No Iterations 0
diagonal:  Solving for f18.air, Initial residual = 0, Final residual = 0, No Iterations 0
diagonal:  Solving for f19.air, Initial residual = 0, Final residual = 0, No Iterations 0
diagonal:  Solving for f20.air, Initial residual = 0, Final residual = 0, No Iterations 0
diagonal:  Solving for f21.air, Initial residual = 0, Final residual = 0, No Iterations 0
diagonal:  Solving for f22.air, Initial residual = 0, Final residual = 0, No Iterations 0
diagonal:  Solving for f23.air, Initial residual = 0, Final residual = 0, No Iterations 0
diagonal:  Solving for f24.air, Initial residual = 0, Final residual = 0, No Iterations 0
diagonal:  Solving for f25.air, Initial residual = 0, Final residual = 0, No Iterations 0
diagonal:  Solving for f26.air, Initial residual = 0, Final residual = 0, No Iterations 0
diagonal:  Solving for f27.air, Initial residual = 0, Final residual = 0, No Iterations 0
diagonal:  Solving for f28.air, Initial residual = 0, Final residual = 0, No Iterations 0
bubbles sizeGroup phase fraction first, last = 0 0
air sizeGroups-sum volume fraction, min, max = 0.99999 0.99999 0.99999
air Sauter mean diameter, min, max = 2.58822 2.58822 2.58822
Constructing momentum equations
diagonal:  Solving for p_rgh, Initial residual = 0, Final residual = 0, No Iterations 0
PIMPLE: Iteration 2
MULES: Solving for alpha.air
air fraction, min, max = 0.27851 0.27851 0.27851
populationBalance bubbles: Iteration 1
diagonal:  Solving for f0.air, Initial residual = 0, Final residual = 0, No Iterations 0
diagonal:  Solving for f1.air, Initial residual = 0, Final residual = 0, No Iterations 0
diagonal:  Solving for f2.air, Initial residual = 0, Final residual = 0, No Iterations 0
diagonal:  Solving for f3.air, Initial residual = 0, Final residual = 0, No Iterations 0
diagonal:  Solving for f4.air, Initial residual = 0, Final residual = 0, No Iterations 0
diagonal:  Solving for f5.air, Initial residual = 0, Final residual = 0, No Iterations 0
diagonal:  Solving for f6.air, Initial residual = 0, Final residual = 0, No Iterations 0
diagonal:  Solving for f7.air, Initial residual = 0, Final residual = 0, No Iterations 0
diagonal:  Solving for f8.air, Initial residual = 0, Final residual = 0, No Iterations 0
diagonal:  Solving for f9.air, Initial residual = 0, Final residual = 0, No Iterations 0
diagonal:  Solving for f10.air, Initial residual = 0, Final residual = 0, No Iterations 0
diagonal:  Solving for f11.air, Initial residual = 0, Final residual = 0, No Iterations 0
diagonal:  Solving for f12.air, Initial residual = 0, Final residual = 0, No Iterations 0
diagonal:  Solving for f13.air, Initial residual = 0, Final residual = 0, No Iterations 0
diagonal:  Solving for f14.air, Initial residual = 0, Final residual = 0, No Iterations 0
diagonal:  Solving for f15.air, Initial residual = 0, Final residual = 0, No Iterations 0
diagonal:  Solving for f16.air, Initial residual = 0, Final residual = 0, No Iterations 0
diagonal:  Solving for f17.air, Initial residual = 0, Final residual = 0, No Iterations 0
diagonal:  Solving for f18.air, Initial residual = 0, Final residual = 0, No Iterations 0
diagonal:  Solving for f19.air, Initial residual = 0, Final residual = 0, No Iterations 0
diagonal:  Solving for f20.air, Initial residual = 0, Final residual = 0, No Iterations 0
diagonal:  Solving for f21.air, Initial residual = 0, Final residual = 0, No Iterations 0
diagonal:  Solving for f22.air, Initial residual = 0, Final residual = 0, No Iterations 0
diagonal:  Solving for f23.air, Initial residual = 0, Final residual = 0, No Iterations 0
diagonal:  Solving for f24.air, Initial residual = 0, Final residual = 0, No Iterations 0
diagonal:  Solving for f25.air, Initial residual = 0, Final residual = 0, No Iterations 0
diagonal:  Solving for f26.air, Initial residual = 0, Final residual = 0, No Iterations 0
diagonal:  Solving for f27.air, Initial residual = 0, Final residual = 0, No Iterations 0
diagonal:  Solving for f28.air, Initial residual = 0, Final residual = 0, No Iterations 0
bubbles sizeGroup phase fraction first, last = 0 0
air sizeGroups-sum volume fraction, min, max = 0.999999 0.999999 0.999999
air Sauter mean diameter, min, max = 2.58819 2.58819 2.58819
Constructing momentum equations
diagonal:  Solving for p_rgh, Initial residual = 0, Final residual = 0, No Iterations 0
ExecutionTime = 0.270003 s  ClockTime = 0 s

Courant Number mean: 0 max: 0
Time = 0.04s

PIMPLE: Iteration 1
MULES: Solving for alpha.air
air fraction, min, max = 0.278202 0.278202 0.278202
populationBalance bubbles: Iteration 1
diagonal:  Solving for f0.air, Initial residual = 0, Final residual = 0, No Iterations 0
diagonal:  Solving for f1.air, Initial residual = 0, Final residual = 0, No Iterations 0
diagonal:  Solving for f2.air, Initial residual = 0, Final residual = 0, No Iterations 0
diagonal:  Solving for f3.air, Initial residual = 0, Final residual = 0, No Iterations 0
diagonal:  Solving for f4.air, Initial residual = 0, Final residual = 0, No Iterations 0
diagonal:  Solving for f5.air, Initial residual = 0, Final residual = 0, No Iterations 0
diagonal:  Solving for f6.air, Initial residual = 0, Final residual = 0, No Iterations 0
diagonal:  Solving for f7.air, Initial residual = 0, Final residual = 0, No Iterations 0
diagonal:  Solving for f8.air, Initial residual = 0, Final residual = 0, No Iterations 0
diagonal:  Solving for f9.air, Initial residual = 0, Final residual = 0, No Iterations 0
diagonal:  Solving for f10.air, Initial residual = 0, Final residual = 0, No Iterations 0
diagonal:  Solving for f11.air, Initial residual = 0, Final residual = 0, No Iterations 0
diagonal:  Solving for f12.air, Initial residual = 0, Final residual = 0, No Iterations 0
diagonal:  Solving for f13.air, Initial residual = 0, Final residual = 0, No Iterations 0
diagonal:  Solving for f14.air, Initial residual = 0, Final residual = 0, No Iterations 0
diagonal:  Solving for f15.air, Initial residual = 0, Final residual = 0, No Iterations 0
diagonal:  Solving for f16.air, Initial residual = 0, Final residual = 0, No Iterations 0
diagonal:  Solving for f17.air, Initial residual = 0, Final residual = 0, No Iterations 0
diagonal:  Solving for f18.air, Initial residual = 0, Final residual = 0, No Iterations 0
diagonal:  Solving for f19.air, Initial residual = 0, Final residual = 0, No Iterations 0
diagonal:  Solving for f20.air, Initial residual = 0, Final residual = 0, No Iterations 0
diagonal:  Solving for f21.air, Initial residual = 0, Final residual = 0, No Iterations 0
diagonal:  Solving for f22.air, Initial residual = 0, Final residual = 0, No Iterations 0
diagonal:  Solving for f23.air, Initial residual = 0, Final residual = 0, No Iterations 0
diagonal:  Solving for f24.air, Initial residual = 0, Final residual = 0, No Iterations 0
diagonal:  Solving for f25.air, Initial residual = 0, Final residual = 0, No Iterations 0
diagonal:  Solving for f26.air, Initial residual = 0, Final residual = 0, No Iterations 0
diagonal:  Solving for f27.air, Initial residual = 0, Final residual = 0, No Iterations 0
diagonal:  Solving for f28.air, Initial residual = 0, Final residual = 0, No Iterations 0
bubbles sizeGroup phase fraction first, last = 0 0
air sizeGroups-sum volume fraction, min, max = 0.99999 0.99999 0.99999
air Sauter mean diameter, min, max = 2.5873 2.5873 2.5873
Constructing momentum equations
diagonal:  Solving for p_rgh, Initial residual = 0, Final residual = 0, No Iterations 0
PIMPLE: Iteration 2
MULES: Solving for alpha.air
air fraction, min, max = 0.278202 0.278202 0.278202
populationBalance bubbles: Iteration 1
diagonal:  Solving for f0.air, Initial residual = 0, Final residual = 0, No Iterations 0
diagonal:  Solving for f1.air, Initial residual = 0, Final residual = 0, No Iterations 0
diagonal:  Solving for f2.air, Initial residual = 0, Final residual = 0, No Iterations 0
diagonal:  Solving for f3.air, Initial residual = 0, Final residual = 0, No Iterations 0
diagonal:  Solving for f4.air, Initial residual = 0, Final residual = 0, No Iterations 0
diagonal:  Solving for f5.air, Initial residual = 0, Final residual = 0, No Iterations 0
diagonal:  Solving for f6.air, Initial residual = 0, Final residual = 0, No Iterations 0
diagonal:  Solving for f7.air, Initial residual = 0, Final residual = 0, No Iterations 0
diagonal:  Solving for f8.air, Initial residual = 0, Final residual = 0, No Iterations 0
diagonal:  Solving for f9.air, Initial residual = 0, Final residual = 0, No Iterations 0
diagonal:  Solving for f10.air, Initial residual = 0, Final residual = 0, No Iterations 0
diagonal:  Solving for f11.air, Initial residual = 0, Final residual = 0, No Iterations 0
diagonal:  Solving for f12.air, Initial residual = 0, Final residual = 0, No Iterations 0
diagonal:  Solving for f13.air, Initial residual = 0, Final residual = 0, No Iterations 0
diagonal:  Solving for f14.air, Initial residual = 0, Final residual = 0, No Iterations 0
diagonal:  Solving for f15.air, Initial residual = 0, Final residual = 0, No Iterations 0
diagonal:  Solving for f16.air, Initial residual = 0, Final residual = 0, No Iterations 0
diagonal:  Solving for f17.air, Initial residual = 0, Final residual = 0, No Iterations 0
diagonal:  Solving for f18.air, Initial residual = 0, Final residual = 0, No Iterations 0
diagonal:  Solving for f19.air, Initial residual = 0, Final residual = 0, No Iterations 0
diagonal:  Solving for f20.air, Initial residual = 0, Final residual = 0, No Iterations 0
diagonal:  Solving for f21.air, Initial residual = 0, Final residual = 0, No Iterations 0
diagonal:  Solving for f22.air, Initial residual = 0, Final residual = 0, No Iterations 0
diagonal:  Solving for f23.air, Initial residual = 0, Final residual = 0, No Iterations 0
diagonal:  Solving for f24.air, Initial residual = 0, Final residual = 0, No Iterations 0
diagonal:  Solving for f25.air, Initial residual = 0, Final residual = 0, No Iterations 0
diagonal:  Solving for f26.air, Initial residual = 0, Final residual = 0, No Iterations 0
diagonal:  Solving for f27.air, Initial residual = 0, Final residual = 0, No Iterations 0
diagonal:  Solving for f28.air, Initial residual = 0, Final residual = 0, No Iterations 0
bubbles sizeGroup phase fraction first, last = 0 0
air sizeGroups-sum volume fraction, min, max = 0.999999 0.999999 0.999999
air Sauter mean diameter, min, max = 2.58727 2.58727 2.58727
Constructing momentum equations
diagonal:  Solving for p_rgh, Initial residual = 0, Final residual = 0, No Iterations 0
ExecutionTime = 0.281604 s  ClockTime = 0 s

Courant Number mean: 0 max: 0
Time = 0.05s

PIMPLE: Iteration 1
MULES: Solving for alpha.air
air fraction, min, max = 0.277894 0.277894 0.277894
populationBalance bubbles: Iteration 1
diagonal:  Solving for f0.air, Initial residual = 0, Final residual = 0, No Iterations 0
diagonal:  Solving for f1.air, Initial residual = 0, Final residual = 0, No Iterations 0
diagonal:  Solving for f2.air, Initial residual = 0, Final residual = 0, No Iterations 0
diagonal:  Solving for f3.air, Initial residual = 0, Final residual = 0, No Iterations 0
diagonal:  Solving for f4.air, Initial residual = 0, Final residual = 0, No Iterations 0
diagonal:  Solving for f5.air, Initial residual = 0, Final residual = 0, No Iterations 0
diagonal:  Solving for f6.air, Initial residual = 0, Final residual = 0, No Iterations 0
diagonal:  Solving for f7.air, Initial residual = 0, Final residual = 0, No Iterations 0
diagonal:  Solving for f8.air, Initial residual = 0, Final residual = 0, No Iterations 0
diagonal:  Solving for f9.air, Initial residual = 0, Final residual = 0, No Iterations 0
diagonal:  Solving for f10.air, Initial residual = 0, Final residual = 0, No Iterations 0
diagonal:  Solving for f11.air, Initial residual = 0, Final residual = 0, No Iterations 0
diagonal:  Solving for f12.air, Initial residual = 0, Final residual = 0, No Iterations 0
diagonal:  Solving for f13.air, Initial residual = 0, Final residual = 0, No Iterations 0
diagonal:  Solving for f14.air, Initial residual = 0, Final residual = 0, No Iterations 0
diagonal:  Solving for f15.air, Initial residual = 0, Final residual = 0, No Iterations 0
diagonal:  Solving for f16.air, Initial residual = 0, Final residual = 0, No Iterations 0
diagonal:  Solving for f17.air, Initial residual = 0, Final residual = 0, No Iterations 0
diagonal:  Solving for f18.air, Initial residual = 0, Final residual = 0, No Iterations 0
diagonal:  Solving for f19.air, Initial residual = 0, Final residual = 0, No Iterations 0
diagonal:  Solving for f20.air, Initial residual = 0, Final residual = 0, No Iterations 0
diagonal:  Solving for f21.air, Initial residual = 0, Final residual = 0, No Iterations 0
diagonal:  Solving for f22.air, Initial residual = 0, Final residual = 0, No Iterations 0
diagonal:  Solving for f23.air, Initial residual = 0, Final residual = 0, No Iterations 0
diagonal:  Solving for f24.air, Initial residual = 0, Final residual = 0, No Iterations 0
diagonal:  Solving for f25.air, Initial residual = 0, Final residual = 0, No Iterations 0
diagonal:  Solving for f26.air, Initial residual = 0, Final residual = 0, No Iterations 0
diagonal:  Solving for f27.air, Initial residual = 0, Final residual = 0, No Iterations 0
diagonal:  Solving for f28.air, Initial residual = 0, Final residual = 0, No Iterations 0
bubbles sizeGroup phase fraction first, last = 0 0
air sizeGroups-sum volume fraction, min, max = 0.999989 0.999989 0.999989
air Sauter mean diameter, min, max = 2.58638 2.58638 2.58638
Constructing momentum equations
diagonal:  Solving for p_rgh, Initial residual = 0, Final residual = 0, No Iterations 0
PIMPLE: Iteration 2
MULES: Solving for alpha.air
air fraction, min, max = 0.277894 0.277894 0.277894
populationBalance bubbles: Iteration 1
diagonal:  Solving for f0.air, Initial residual = 0, Final residual = 0, No Iterations 0
diagonal:  Solving for f1.air, Initial residual = 0, Final residual = 0, No Iterations 0
diagonal:  Solving for f2.air, Initial residual = 0, Final residual = 0, No Iterations 0
diagonal:  Solving for f3.air, Initial residual = 0, Final residual = 0, No Iterations 0
diagonal:  Solving for f4.air, Initial residual = 0, Final residual = 0, No Iterations 0
diagonal:  Solving for f5.air, Initial residual = 0, Final residual = 0, No Iterations 0
diagonal:  Solving for f6.air, Initial residual = 0, Final residual = 0, No Iterations 0
diagonal:  Solving for f7.air, Initial residual = 0, Final residual = 0, No Iterations 0
diagonal:  Solving for f8.air, Initial residual = 0, Final residual = 0, No Iterations 0
diagonal:  Solving for f9.air, Initial residual = 0, Final residual = 0, No Iterations 0
diagonal:  Solving for f10.air, Initial residual = 0, Final residual = 0, No Iterations 0
diagonal:  Solving for f11.air, Initial residual = 0, Final residual = 0, No Iterations 0
diagonal:  Solving for f12.air, Initial residual = 0, Final residual = 0, No Iterations 0
diagonal:  Solving for f13.air, Initial residual = 0, Final residual = 0, No Iterations 0
diagonal:  Solving for f14.air, Initial residual = 0, Final residual = 0, No Iterations 0
diagonal:  Solving for f15.air, Initial residual = 0, Final residual = 0, No Iterations 0
diagonal:  Solving for f16.air, Initial residual = 0, Final residual = 0, No Iterations 0
diagonal:  Solving for f17.air, Initial residual = 0, Final residual = 0, No Iterations 0
diagonal:  Solving for f18.air, Initial residual = 0, Final residual = 0, No Iterations 0
diagonal:  Solving for f19.air, Initial residual = 0, Final residual = 0, No Iterations 0
diagonal:  Solving for f20.air, Initial residual = 0, Final residual = 0, No Iterations 0
diagonal:  Solving for f21.air, Initial residual = 0, Final residual = 0, No Iterations 0
diagonal:  Solving for f22.air, Initial residual = 0, Final residual = 0, No Iterations 0
diagonal:  Solving for f23.air, Initial residual = 0, Final residual = 0, No Iterations 0
diagonal:  Solving for f24.air, Initial residual = 0, Final residual = 0, No Iterations 0
diagonal:  Solving for f25.air, Initial residual = 0, Final residual = 0, No Iterations 0
diagonal:  Solving for f26.air, Initial residual = 0, Final residual = 0, No Iterations 0
diagonal:  Solving for f27.air, Initial residual = 0, Final residual = 0, No Iterations 0
diagonal:  Solving for f28.air, Initial residual = 0, Final residual = 0, No Iterations 0
bubbles sizeGroup phase fraction first, last = 0 0
air sizeGroups-sum volume fraction, min, max = 0.999999 0.999999 0.999999
air Sauter mean diameter, min, max = 2.58635 2.58635 2.58635
Constructing momentum equations
diagonal:  Solving for p_rgh, Initial residual = 0, Final residual = 0, No Iterations 0
ExecutionTime = 0.292492 s  ClockTime = 0 s

Courant Number mean: 0 max: 0
Time = 0.06s

PIMPLE: Iteration 1
MULES: Solving for alpha.air
air fraction, min, max = 0.277587 0.277587 0.277587
populationBalance bubbles: Iteration 1
diagonal:  Solving for f0.air, Initial residual = 0, Final residual = 0, No Iterations 0
diagonal:  Solving for f1.air, Initial residual = 0, Final residual = 0, No Iterations 0
diagonal:  Solving for f2.air, Initial residual = 0, Final residual = 0, No Iterations 0
diagonal:  Solving for f3.air, Initial residual = 0, Final residual = 0, No Iterations 0
diagonal:  Solving for f4.air, Initial residual = 0, Final residual = 0, No Iterations 0
diagonal:  Solving for f5.air, Initial residual = 0, Final residual = 0, No Iterations 0
diagonal:  Solving for f6.air, Initial residual = 0, Final residual = 0, No Iterations 0
diagonal:  Solving for f7.air, Initial residual = 0, Final residual = 0, No Iterations 0
diagonal:  Solving for f8.air, Initial residual = 0, Final residual = 0, No Iterations 0
diagonal:  Solving for f9.air, Initial residual = 0, Final residual = 0, No Iterations 0
diagonal:  Solving for f10.air, Initial residual = 0, Final residual = 0, No Iterations 0
diagonal:  Solving for f11.air, Initial residual = 0, Final residual = 0, No Iterations 0
diagonal:  Solving for f12.air, Initial residual = 0, Final residual = 0, No Iterations 0
diagonal:  Solving for f13.air, Initial residual = 0, Final residual = 0, No Iterations 0
diagonal:  Solving for f14.air, Initial residual = 0, Final residual = 0, No Iterations 0
diagonal:  Solving for f15.air, Initial residual = 0, Final residual = 0, No Iterations 0
diagonal:  Solving for f16.air, Initial residual = 0, Final residual = 0, No Iterations 0
diagonal:  Solving for f17.air, Initial residual = 0, Final residual = 0, No Iterations 0
diagonal:  Solving for f18.air, Initial residual = 0, Final residual = 0, No Iterations 0
diagonal:  Solving for f19.air, Initial residual = 0, Final residual = 0, No Iterations 0
diagonal:  Solving for f20.air, Initial residual = 0, Final residual = 0, No Iterations 0
diagonal:  Solving for f21.air, Initial residual = 0, Final residual = 0, No Iterations 0
diagonal:  Solving for f22.air, Initial residual = 0, Final residual = 0, No Iterations 0
diagonal:  Solving for f23.air, Initial residual = 0, Final residual = 0, No Iterations 0
diagonal:  Solving for f24.air, Initial residual = 0, Final residual = 0, No Iterations 0
diagonal:  Solving for f25.air, Initial residual = 0, Final residual = 0, No Iterations 0
diagonal:  Solving for f26.air, Initial residual = 0, Final residual = 0, No Iterations 0
diagonal:  Solving for f27.air, Initial residual = 0, Final residual = 0, No Iterations 0
diagonal:  Solving for f28.air, Initial residual = 0, Final residual = 0, No Iterations 0
bubbles sizeGroup phase fraction first, last = 0 0
air sizeGroups-sum volume fraction, min, max = 0.999989 0.999989 0.999989
air Sauter mean diameter, min, max = 2.58546 2.58546 2.58546
Constructing momentum equations
diagonal:  Solving for p_rgh, Initial residual = 0, Final residual = 0, No Iterations 0
PIMPLE: Iteration 2
MULES: Solving for alpha.air
air fraction, min, max = 0.277586 0.277586 0.277586
populationBalance bubbles: Iteration 1
diagonal:  Solving for f0.air, Initial residual = 0, Final residual = 0, No Iterations 0
diagonal:  Solving for f1.air, Initial residual = 0, Final residual = 0, No Iterations 0
diagonal:  Solving for f2.air, Initial residual = 0, Final residual = 0, No Iterations 0
diagonal:  Solving for f3.air, Initial residual = 0, Final residual = 0, No Iterations 0
diagonal:  Solving for f4.air, Initial residual = 0, Final residual = 0, No Iterations 0
diagonal:  Solving for f5.air, Initial residual = 0, Final residual = 0, No Iterations 0
diagonal:  Solving for f6.air, Initial residual = 0, Final residual = 0, No Iterations 0
diagonal:  Solving for f7.air, Initial residual = 0, Final residual = 0, No Iterations 0
diagonal:  Solving for f8.air, Initial residual = 0, Final residual = 0, No Iterations 0
diagonal:  Solving for f9.air, Initial residual = 0, Final residual = 0, No Iterations 0
diagonal:  Solving for f10.air, Initial residual = 0, Final residual = 0, No Iterations 0
diagonal:  Solving for f11.air, Initial residual = 0, Final residual = 0, No Iterations 0
diagonal:  Solving for f12.air, Initial residual = 0, Final residual = 0, No Iterations 0
diagonal:  Solving for f13.air, Initial residual = 0, Final residual = 0, No Iterations 0
diagonal:  Solving for f14.air, Initial residual = 0, Final residual = 0, No Iterations 0
diagonal:  Solving for f15.air, Initial residual = 0, Final residual = 0, No Iterations 0
diagonal:  Solving for f16.air, Initial residual = 0, Final residual = 0, No Iterations 0
diagonal:  Solving for f17.air, Initial residual = 0, Final residual = 0, No Iterations 0
diagonal:  Solving for f18.air, Initial residual = 0, Final residual = 0, No Iterations 0
diagonal:  Solving for f19.air, Initial residual = 0, Final residual = 0, No Iterations 0
diagonal:  Solving for f20.air, Initial residual = 0, Final residual = 0, No Iterations 0
diagonal:  Solving for f21.air, Initial residual = 0, Final residual = 0, No Iterations 0
diagonal:  Solving for f22.air, Initial residual = 0, Final residual = 0, No Iterations 0
diagonal:  Solving for f23.air, Initial residual = 0, Final residual = 0, No Iterations 0
diagonal:  Solving for f24.air, Initial residual = 0, Final residual = 0, No Iterations 0
diagonal:  Solving for f25.air, Initial residual = 0, Final residual = 0, No Iterations 0
diagonal:  Solving for f26.air, Initial residual = 0, Final residual = 0, No Iterations 0
diagonal:  Solving for f27.air, Initial residual = 0, Final residual = 0, No Iterations 0
diagonal:  Solving for f28.air, Initial residual = 0, Final residual = 0, No Iterations 0
bubbles sizeGroup phase fraction first, last = 0 0
air sizeGroups-sum volume fraction, min, max = 0.999998 0.999998 0.999998
air Sauter mean diameter, min, max = 2.58543 2.58543 2.58543
Constructing momentum equations
diagonal:  Solving for p_rgh, Initial residual = 0, Final residual = 0, No Iterations 0
ExecutionTime = 0.302384 s  ClockTime = 0 s

Courant Number mean: 0 max: 0
Time = 0.07s

PIMPLE: Iteration 1
MULES: Solving for alpha.air
air fraction, min, max = 0.277279 0.277279 0.277279
populationBalance bubbles: Iteration 1
diagonal:  Solving for f0.air, Initial residual = 0, Final residual = 0, No Iterations 0
diagonal:  Solving for f1.air, Initial residual = 0, Final residual = 0, No Iterations 0
diagonal:  Solving for f2.air, Initial residual = 0, Final residual = 0, No Iterations 0
diagonal:  Solving for f3.air, Initial residual = 0, Final residual = 0, No Iterations 0
diagonal:  Solving for f4.air, Initial residual = 0, Final residual = 0, No Iterations 0
diagonal:  Solving for f5.air, Initial residual = 0, Final residual = 0, No Iterations 0
diagonal:  Solving for f6.air, Initial residual = 0, Final residual = 0, No Iterations 0
diagonal:  Solving for f7.air, Initial residual = 0, Final residual = 0, No Iterations 0
diagonal:  Solving for f8.air, Initial residual = 0, Final residual = 0, No Iterations 0
diagonal:  Solving for f9.air, Initial residual = 0, Final residual = 0, No Iterations 0
diagonal:  Solving for f10.air, Initial residual = 0, Final residual = 0, No Iterations 0
diagonal:  Solving for f11.air, Initial residual = 0, Final residual = 0, No Iterations 0
diagonal:  Solving for f12.air, Initial residual = 0, Final residual = 0, No Iterations 0
diagonal:  Solving for f13.air, Initial residual = 0, Final residual = 0, No Iterations 0
diagonal:  Solving for f14.air, Initial residual = 0, Final residual = 0, No Iterations 0
diagonal:  Solving for f15.air, Initial residual = 0, Final residual = 0, No Iterations 0
diagonal:  Solving for f16.air, Initial residual = 0, Final residual = 0, No Iterations 0
diagonal:  Solving for f17.air, Initial residual = 0, Final residual = 0, No Iterations 0
diagonal:  Solving for f18.air, Initial residual = 0, Final residual = 0, No Iterations 0
diagonal:  Solving for f19.air, Initial residual = 0, Final residual = 0, No Iterations 0
diagonal:  Solving for f20.air, Initial residual = 0, Final residual = 0, No Iterations 0
diagonal:  Solving for f21.air, Initial residual = 0, Final residual = 0, No Iterations 0
diagonal:  Solving for f22.air, Initial residual = 0, Final residual = 0, No Iterations 0
diagonal:  Solving for f23.air, Initial residual = 0, Final residual = 0, No Iterations 0
diagonal:  Solving for f24.air, Initial residual = 0, Final residual = 0, No Iterations 0
diagonal:  Solving for f25.air, Initial residual = 0, Final residual = 0, No Iterations 0
diagonal:  Solving for f26.air, Initial residual = 0, Final residual = 0, No Iterations 0
diagonal:  Solving for f27.air, Initial residual = 0, Final residual = 0, No Iterations 0
diagonal:  Solving for f28.air, Initial residual = 0, Final residual = 0, No Iterations 0
bubbles sizeGroup phase fraction first, last = 0 0
air sizeGroups-sum volume fraction, min, max = 0.999989 0.999989 0.999989
air Sauter mean diameter, min, max = 2.58454 2.58454 2.58454
Constructing momentum equations
diagonal:  Solving for p_rgh, Initial residual = 0, Final residual = 0, No Iterations 0
PIMPLE: Iteration 2
MULES: Solving for alpha.air
air fraction, min, max = 0.277278 0.277278 0.277278
populationBalance bubbles: Iteration 1
diagonal:  Solving for f0.air, Initial residual = 0, Final residual = 0, No Iterations 0
diagonal:  Solving for f1.air, Initial residual = 0, Final residual = 0, No Iterations 0
diagonal:  Solving for f2.air, Initial residual = 0, Final residual = 0, No Iterations 0
diagonal:  Solving for f3.air, Initial residual = 0, Final residual = 0, No Iterations 0
diagonal:  Solving for f4.air, Initial residual = 0, Final residual = 0, No Iterations 0
diagonal:  Solving for f5.air, Initial residual = 0, Final residual = 0, No Iterations 0
diagonal:  Solving for f6.air, Initial residual = 0, Final residual = 0, No Iterations 0
diagonal:  Solving for f7.air, Initial residual = 0, Final residual = 0, No Iterations 0
diagonal:  Solving for f8.air, Initial residual = 0, Final residual = 0, No Iterations 0
diagonal:  Solving for f9.air, Initial residual = 0, Final residual = 0, No Iterations 0
diagonal:  Solving for f10.air, Initial residual = 0, Final residual = 0, No Iterations 0
diagonal:  Solving for f11.air, Initial residual = 0, Final residual = 0, No Iterations 0
diagonal:  Solving for f12.air, Initial residual = 0, Final residual = 0, No Iterations 0
diagonal:  Solving for f13.air, Initial residual = 0, Final residual = 0, No Iterations 0
diagonal:  Solving for f14.air, Initial residual = 0, Final residual = 0, No Iterations 0
diagonal:  Solving for f15.air, Initial residual = 0, Final residual = 0, No Iterations 0
diagonal:  Solving for f16.air, Initial residual = 0, Final residual = 0, No Iterations 0
diagonal:  Solving for f17.air, Initial residual = 0, Final residual = 0, No Iterations 0
diagonal:  Solving for f18.air, Initial residual = 0, Final residual = 0, No Iterations 0
diagonal:  Solving for f19.air, Initial residual = 0, Final residual = 0, No Iterations 0
diagonal:  Solving for f20.air, Initial residual = 0, Final residual = 0, No Iterations 0
diagonal:  Solving for f21.air, Initial residual = 0, Final residual = 0, No Iterations 0
diagonal:  Solving for f22.air, Initial residual = 0, Final residual = 0, No Iterations 0
diagonal:  Solving for f23.air, Initial residual = 0, Final residual = 0, No Iterations 0
diagonal:  Solving for f24.air, Initial residual = 0, Final residual = 0, No Iterations 0
diagonal:  Solving for f25.air, Initial residual = 0, Final residual = 0, No Iterations 0
diagonal:  Solving for f26.air, Initial residual = 0, Final residual = 0, No Iterations 0
diagonal:  Solving for f27.air, Initial residual = 0, Final residual = 0, No Iterations 0
diagonal:  Solving for f28.air, Initial residual = 0, Final residual = 0, No Iterations 0
bubbles sizeGroup phase fraction first, last = 0 0
air sizeGroups-sum volume fraction, min, max = 0.999998 0.999998 0.999998
air Sauter mean diameter, min, max = 2.58451 2.58451 2.58451
Constructing momentum equations
diagonal:  Solving for p_rgh, Initial residual = 0, Final residual = 0, No Iterations 0
ExecutionTime = 0.315178 s  ClockTime = 0 s

Courant Number mean: 0 max: 0
Time = 0.08s

PIMPLE: Iteration 1
MULES: Solving for alpha.air
air fraction, min, max = 0.276971 0.276971 0.276971
populationBalance bubbles: Iteration 1
diagonal:  Solving for f0.air, Initial residual = 0, Final residual = 0, No Iterations 0
diagonal:  Solving for f1.air, Initial residual = 0, Final residual = 0, No Iterations 0
diagonal:  Solving for f2.air, Initial residual = 0, Final residual = 0, No Iterations 0
diagonal:  Solving for f3.air, Initial residual = 0, Final residual = 0, No Iterations 0
diagonal:  Solving for f4.air, Initial residual = 0, Final residual = 0, No Iterations 0
diagonal:  Solving for f5.air, Initial residual = 0, Final residual = 0, No Iterations 0
diagonal:  Solving for f6.air, Initial residual = 0, Final residual = 0, No Iterations 0
diagonal:  Solving for f7.air, Initial residual = 0, Final residual = 0, No Iterations 0
diagonal:  Solving for f8.air, Initial residual = 0, Final residual = 0, No Iterations 0
diagonal:  Solving for f9.air, Initial residual = 0, Final residual = 0, No Iterations 0
diagonal:  Solving for f10.air, Initial residual = 0, Final residual = 0, No Iterations 0
diagonal:  Solving for f11.air, Initial residual = 0, Final residual = 0, No Iterations 0
diagonal:  Solving for f12.air, Initial residual = 0, Final residual = 0, No Iterations 0
diagonal:  Solving for f13.air, Initial residual = 0, Final residual = 0, No Iterations 0
diagonal:  Solving for f14.air, Initial residual = 0, Final residual = 0, No Iterations 0
diagonal:  Solving for f15.air, Initial residual = 0, Final residual = 0, No Iterations 0
diagonal:  Solving for f16.air, Initial residual = 0, Final residual = 0, No Iterations 0
diagonal:  Solving for f17.air, Initial residual = 0, Final residual = 0, No Iterations 0
diagonal:  Solving for f18.air, Initial residual = 0, Final residual = 0, No Iterations 0
diagonal:  Solving for f19.air, Initial residual = 0, Final residual = 0, No Iterations 0
diagonal:  Solving for f20.air, Initial residual = 0, Final residual = 0, No Iterations 0
diagonal:  Solving for f21.air, Initial residual = 0, Final residual = 0, No Iterations 0
diagonal:  Solving for f22.air, Initial residual = 0, Final residual = 0, No Iterations 0
diagonal:  Solving for f23.air, Initial residual = 0, Final residual = 0, No Iterations 0
diagonal:  Solving for f24.air, Initial residual = 0, Final residual = 0, No Iterations 0
diagonal:  Solving for f25.air, Initial residual = 0, Final residual = 0, No Iterations 0
diagonal:  Solving for f26.air, Initial residual = 0, Final residual = 0, No Iterations 0
diagonal:  Solving for f27.air, Initial residual = 0, Final residual = 0, No Iterations 0
diagonal:  Solving for f28.air, Initial residual = 0, Final residual = 0, No Iterations 0
bubbles sizeGroup phase fraction first, last = 0 0
air sizeGroups-sum volume fraction, min, max = 0.999989 0.999989 0.999989
air Sauter mean diameter, min, max = 2.58362 2.58362 2.58362
Constructing momentum equations
diagonal:  Solving for p_rgh, Initial residual = 0, Final residual = 0, No Iterations 0
PIMPLE: Iteration 2
MULES: Solving for alpha.air
air fraction, min, max = 0.276971 0.276971 0.276971
populationBalance bubbles: Iteration 1
diagonal:  Solving for f0.air, Initial residual = 0, Final residual = 0, No Iterations 0
diagonal:  Solving for f1.air, Initial residual = 0, Final residual = 0, No Iterations 0
diagonal:  Solving for f2.air, Initial residual = 0, Final residual = 0, No Iterations 0
diagonal:  Solving for f3.air, Initial residual = 0, Final residual = 0, No Iterations 0
diagonal:  Solving for f4.air, Initial residual = 0, Final residual = 0, No Iterations 0
diagonal:  Solving for f5.air, Initial residual = 0, Final residual = 0, No Iterations 0
diagonal:  Solving for f6.air, Initial residual = 0, Final residual = 0, No Iterations 0
diagonal:  Solving for f7.air, Initial residual = 0, Final residual = 0, No Iterations 0
diagonal:  Solving for f8.air, Initial residual = 0, Final residual = 0, No Iterations 0
diagonal:  Solving for f9.air, Initial residual = 0, Final residual = 0, No Iterations 0
diagonal:  Solving for f10.air, Initial residual = 0, Final residual = 0, No Iterations 0
diagonal:  Solving for f11.air, Initial residual = 0, Final residual = 0, No Iterations 0
diagonal:  Solving for f12.air, Initial residual = 0, Final residual = 0, No Iterations 0
diagonal:  Solving for f13.air, Initial residual = 0, Final residual = 0, No Iterations 0
diagonal:  Solving for f14.air, Initial residual = 0, Final residual = 0, No Iterations 0
diagonal:  Solving for f15.air, Initial residual = 0, Final residual = 0, No Iterations 0
diagonal:  Solving for f16.air, Initial residual = 0, Final residual = 0, No Iterations 0
diagonal:  Solving for f17.air, Initial residual = 0, Final residual = 0, No Iterations 0
diagonal:  Solving for f18.air, Initial residual = 0, Final residual = 0, No Iterations 0
diagonal:  Solving for f19.air, Initial residual = 0, Final residual = 0, No Iterations 0
diagonal:  Solving for f20.air, Initial residual = 0, Final residual = 0, No Iterations 0
diagonal:  Solving for f21.air, Initial residual = 0, Final residual = 0, No Iterations 0
diagonal:  Solving for f22.air, Initial residual = 0, Final residual = 0, No Iterations 0
diagonal:  Solving for f23.air, Initial residual = 0, Final residual = 0, No Iterations 0
diagonal:  Solving for f24.air, Initial residual = 0, Final residual = 0, No Iterations 0
diagonal:  Solving for f25.air, Initial residual = 0, Final residual = 0, No Iterations 0
diagonal:  Solving for f26.air, Initial residual = 0, Final residual = 0, No Iterations 0
diagonal:  Solving for f27.air, Initial residual = 0, Final residual = 0, No Iterations 0
diagonal:  Solving for f28.air, Initial residual = 0, Final residual = 0, No Iterations 0
bubbles sizeGroup phase fraction first, last = 0 0
air sizeGroups-sum volume fraction, min, max = 0.999998 0.999998 0.999998
air Sauter mean diameter, min, max = 2.58359 2.58359 2.58359
Constructing momentum equations
diagonal:  Solving for p_rgh, Initial residual = 0, Final residual = 0, No Iterations 0
ExecutionTime = 0.324089 s  ClockTime = 0 s

Courant Number mean: 0 max: 0
Time = 0.09s

PIMPLE: Iteration 1
MULES: Solving for alpha.air
air fraction, min, max = 0.276663 0.276663 0.276663
populationBalance bubbles: Iteration 1
diagonal:  Solving for f0.air, Initial residual = 0, Final residual = 0, No Iterations 0
diagonal:  Solving for f1.air, Initial residual = 0, Final residual = 0, No Iterations 0
diagonal:  Solving for f2.air, Initial residual = 0, Final residual = 0, No Iterations 0
diagonal:  Solving for f3.air, Initial residual = 0, Final residual = 0, No Iterations 0
diagonal:  Solving for f4.air, Initial residual = 0, Final residual = 0, No Iterations 0
diagonal:  Solving for f5.air, Initial residual = 0, Final residual = 0, No Iterations 0
diagonal:  Solving for f6.air, Initial residual = 0, Final residual = 0, No Iterations 0
diagonal:  Solving for f7.air, Initial residual = 0, Final residual = 0, No Iterations 0
diagonal:  Solving for f8.air, Initial residual = 0, Final residual = 0, No Iterations 0
diagonal:  Solving for f9.air, Initial residual = 0, Final residual = 0, No Iterations 0
diagonal:  Solving for f10.air, Initial residual = 0, Final residual = 0, No Iterations 0
diagonal:  Solving for f11.air, Initial residual = 0, Final residual = 0, No Iterations 0
diagonal:  Solving for f12.air, Initial residual = 0, Final residual = 0, No Iterations 0
diagonal:  Solving for f13.air, Initial residual = 0, Final residual = 0, No Iterations 0
diagonal:  Solving for f14.air, Initial residual = 0, Final residual = 0, No Iterations 0
diagonal:  Solving for f15.air, Initial residual = 0, Final residual = 0, No Iterations 0
diagonal:  Solving for f16.air, Initial residual = 0, Final residual = 0, No Iterations 0
diagonal:  Solving for f17.air, Initial residual = 0, Final residual = 0, No Iterations 0
diagonal:  Solving for f18.air, Initial residual = 0, Final residual = 0, No Iterations 0
diagonal:  Solving for f19.air, Initial residual = 0, Final residual = 0, No Iterations 0
diagonal:  Solving for f20.air, Initial residual = 0, Final residual = 0, No Iterations 0
diagonal:  Solving for f21.air, Initial residual = 0, Final residual = 0, No Iterations 0
diagonal:  Solving for f22.air, Initial residual = 0, Final residual = 0, No Iterations 0
diagonal:  Solving for f23.air, Initial residual = 0, Final residual = 0, No Iterations 0
diagonal:  Solving for f24.air, Initial residual = 0, Final residual = 0, No Iterations 0
diagonal:  Solving for f25.air, Initial residual = 0, Final residual = 0, No Iterations 0
diagonal:  Solving for f26.air, Initial residual = 0, Final residual = 0, No Iterations 0
diagonal:  Solving for f27.air, Initial residual = 0, Final residual = 0, No Iterations 0
diagonal:  Solving for f28.air, Initial residual = 0, Final residual = 0, No Iterations 0
bubbles sizeGroup phase fraction first, last = 0 0
air sizeGroups-sum volume fraction, min, max = 0.999988 0.999988 0.999988
air Sauter mean diameter, min, max = 2.5827 2.5827 2.5827
Constructing momentum equations
diagonal:  Solving for p_rgh, Initial residual = 0, Final residual = 0, No Iterations 0
PIMPLE: Iteration 2
MULES: Solving for alpha.air
air fraction, min, max = 0.276663 0.276663 0.276663
populationBalance bubbles: Iteration 1
diagonal:  Solving for f0.air, Initial residual = 0, Final residual = 0, No Iterations 0
diagonal:  Solving for f1.air, Initial residual = 0, Final residual = 0, No Iterations 0
diagonal:  Solving for f2.air, Initial residual = 0, Final residual = 0, No Iterations 0
diagonal:  Solving for f3.air, Initial residual = 0, Final residual = 0, No Iterations 0
diagonal:  Solving for f4.air, Initial residual = 0, Final residual = 0, No Iterations 0
diagonal:  Solving for f5.air, Initial residual = 0, Final residual = 0, No Iterations 0
diagonal:  Solving for f6.air, Initial residual = 0, Final residual = 0, No Iterations 0
diagonal:  Solving for f7.air, Initial residual = 0, Final residual = 0, No Iterations 0
diagonal:  Solving for f8.air, Initial residual = 0, Final residual = 0, No Iterations 0
diagonal:  Solving for f9.air, Initial residual = 0, Final residual = 0, No Iterations 0
diagonal:  Solving for f10.air, Initial residual = 0, Final residual = 0, No Iterations 0
diagonal:  Solving for f11.air, Initial residual = 0, Final residual = 0, No Iterations 0
diagonal:  Solving for f12.air, Initial residual = 0, Final residual = 0, No Iterations 0
diagonal:  Solving for f13.air, Initial residual = 0, Final residual = 0, No Iterations 0
diagonal:  Solving for f14.air, Initial residual = 0, Final residual = 0, No Iterations 0
diagonal:  Solving for f15.air, Initial residual = 0, Final residual = 0, No Iterations 0
diagonal:  Solving for f16.air, Initial residual = 0, Final residual = 0, No Iterations 0
diagonal:  Solving for f17.air, Initial residual = 0, Final residual = 0, No Iterations 0
diagonal:  Solving for f18.air, Initial residual = 0, Final residual = 0, No Iterations 0
diagonal:  Solving for f19.air, Initial residual = 0, Final residual = 0, No Iterations 0
diagonal:  Solving for f20.air, Initial residual = 0, Final residual = 0, No Iterations 0
diagonal:  Solving for f21.air, Initial residual = 0, Final residual = 0, No Iterations 0
diagonal:  Solving for f22.air, Initial residual = 0, Final residual = 0, No Iterations 0
diagonal:  Solving for f23.air, Initial residual = 0, Final residual = 0, No Iterations 0
diagonal:  Solving for f24.air, Initial residual = 0, Final residual = 0, No Iterations 0
diagonal:  Solving for f25.air, Initial residual = 0, Final residual = 0, No Iterations 0
diagonal:  Solving for f26.air, Initial residual = 0, Final residual = 0, No Iterations 0
diagonal:  Solving for f27.air, Initial residual = 0, Final residual = 0, No Iterations 0
diagonal:  Solving for f28.air, Initial residual = 0, Final residual = 0, No Iterations 0
bubbles sizeGroup phase fraction first, last = 0 0
air sizeGroups-sum volume fraction, min, max = 0.999998 0.999998 0.999998
air Sauter mean diameter, min, max = 2.58266 2.58266 2.58266
Constructing momentum equations
diagonal:  Solving for p_rgh, Initial residual = 0, Final residual = 0, No Iterations 0
ExecutionTime = 0.332114 s  ClockTime = 0 s

Courant Number mean: 0 max: 0
Time = 0.1s

PIMPLE: Iteration 1
MULES: Solving for alpha.air
air fraction, min, max = 0.276355 0.276355 0.276355
populationBalance bubbles: Iteration 1
diagonal:  Solving for f0.air, Initial residual = 0, Final residual = 0, No Iterations 0
diagonal:  Solving for f1.air, Initial residual = 0, Final residual = 0, No Iterations 0
diagonal:  Solving for f2.air, Initial residual = 0, Final residual = 0, No Iterations 0
diagonal:  Solving for f3.air, Initial residual = 0, Final residual = 0, No Iterations 0
diagonal:  Solving for f4.air, Initial residual = 0, Final residual = 0, No Iterations 0
diagonal:  Solving for f5.air, Initial residual = 0, Final residual = 0, No Iterations 0
diagonal:  Solving for f6.air, Initial residual = 0, Final residual = 0, No Iterations 0
diagonal:  Solving for f7.air, Initial residual = 0, Final residual = 0, No Iterations 0
diagonal:  Solving for f8.air, Initial residual = 0, Final residual = 0, No Iterations 0
diagonal:  Solving for f9.air, Initial residual = 0, Final residual = 0, No Iterations 0
diagonal:  Solving for f10.air, Initial residual = 0, Final residual = 0, No Iterations 0
diagonal:  Solving for f11.air, Initial residual = 0, Final residual = 0, No Iterations 0
diagonal:  Solving for f12.air, Initial residual = 0, Final residual = 0, No Iterations 0
diagonal:  Solving for f13.air, Initial residual = 0, Final residual = 0, No Iterations 0
diagonal:  Solving for f14.air, Initial residual = 0, Final residual = 0, No Iterations 0
diagonal:  Solving for f15.air, Initial residual = 0, Final residual = 0, No Iterations 0
diagonal:  Solving for f16.air, Initial residual = 0, Final residual = 0, No Iterations 0
diagonal:  Solving for f17.air, Initial residual = 0, Final residual = 0, No Iterations 0
diagonal:  Solving for f18.air, Initial residual = 0, Final residual = 0, No Iterations 0
diagonal:  Solving for f19.air, Initial residual = 0, Final residual = 0, No Iterations 0
diagonal:  Solving for f20.air, Initial residual = 0, Final residual = 0, No Iterations 0
diagonal:  Solving for f21.air, Initial residual = 0, Final residual = 0, No Iterations 0
diagonal:  Solving for f22.air, Initial residual = 0, Final residual = 0, No Iterations 0
diagonal:  Solving for f23.air, Initial residual = 0, Final residual = 0, No Iterations 0
diagonal:  Solving for f24.air, Initial residual = 0, Final residual = 0, No Iterations 0
diagonal:  Solving for f25.air, Initial residual = 0, Final residual = 0, No Iterations 0
diagonal:  Solving for f26.air, Initial residual = 0, Final residual = 0, No Iterations 0
diagonal:  Solving for f27.air, Initial residual = 0, Final residual = 0, No Iterations 0
diagonal:  Solving for f28.air, Initial residual = 0, Final residual = 0, No Iterations 0
bubbles sizeGroup phase fraction first, last = 0 0
air sizeGroups-sum volume fraction, min, max = 0.999988 0.999988 0.999988
air Sauter mean diameter, min, max = 2.58178 2.58178 2.58178
Constructing momentum equations
diagonal:  Solving for p_rgh, Initial residual = 0, Final residual = 0, No Iterations 0
PIMPLE: Iteration 2
MULES: Solving for alpha.air
air fraction, min, max = 0.276355 0.276355 0.276355
populationBalance bubbles: Iteration 1
diagonal:  Solving for f0.air, Initial residual = 0, Final residual = 0, No Iterations 0
diagonal:  Solving for f1.air, Initial residual = 0, Final residual = 0, No Iterations 0
diagonal:  Solving for f2.air, Initial residual = 0, Final residual = 0, No Iterations 0
diagonal:  Solving for f3.air, Initial residual = 0, Final residual = 0, No Iterations 0
diagonal:  Solving for f4.air, Initial residual = 0, Final residual = 0, No Iterations 0
diagonal:  Solving for f5.air, Initial residual = 0, Final residual = 0, No Iterations 0
diagonal:  Solving for f6.air, Initial residual = 0, Final residual = 0, No Iterations 0
diagonal:  Solving for f7.air, Initial residual = 0, Final residual = 0, No Iterations 0
diagonal:  Solving for f8.air, Initial residual = 0, Final residual = 0, No Iterations 0
diagonal:  Solving for f9.air, Initial residual = 0, Final residual = 0, No Iterations 0
diagonal:  Solving for f10.air, Initial residual = 0, Final residual = 0, No Iterations 0
diagonal:  Solving for f11.air, Initial residual = 0, Final residual = 0, No Iterations 0
diagonal:  Solving for f12.air, Initial residual = 0, Final residual = 0, No Iterations 0
diagonal:  Solving for f13.air, Initial residual = 0, Final residual = 0, No Iterations 0
diagonal:  Solving for f14.air, Initial residual = 0, Final residual = 0, No Iterations 0
diagonal:  Solving for f15.air, Initial residual = 0, Final residual = 0, No Iterations 0
diagonal:  Solving for f16.air, Initial residual = 0, Final residual = 0, No Iterations 0
diagonal:  Solving for f17.air, Initial residual = 0, Final residual = 0, No Iterations 0
diagonal:  Solving for f18.air, Initial residual = 0, Final residual = 0, No Iterations 0
diagonal:  Solving for f19.air, Initial residual = 0, Final residual = 0, No Iterations 0
diagonal:  Solving for f20.air, Initial residual = 0, Final residual = 0, No Iterations 0
diagonal:  Solving for f21.air, Initial residual = 0, Final residual = 0, No Iterations 0
diagonal:  Solving for f22.air, Initial residual = 0, Final residual = 0, No Iterations 0
diagonal:  Solving for f23.air, Initial residual = 0, Final residual = 0, No Iterations 0
diagonal:  Solving for f24.air, Initial residual = 0, Final residual = 0, No Iterations 0
diagonal:  Solving for f25.air, Initial residual = 0, Final residual = 0, No Iterations 0
diagonal:  Solving for f26.air, Initial residual = 0, Final residual = 0, No Iterations 0
diagonal:  Solving for f27.air, Initial residual = 0, Final residual = 0, No Iterations 0
diagonal:  Solving for f28.air, Initial residual = 0, Final residual = 0, No Iterations 0
bubbles sizeGroup phase fraction first, last = 9.71902e-34 0
air sizeGroups-sum volume fraction, min, max = 0.999997 0.999997 0.999997
air Sauter mean diameter, min, max = 2.58174 2.58174 2.58174
Constructing momentum equations
diagonal:  Solving for p_rgh, Initial residual = 0, Final residual = 0, No Iterations 0
ExecutionTime = 0.340985 s  ClockTime = 0 s

Courant Number mean: 0 max: 0
Time = 0.11s

PIMPLE: Iteration 1
MULES: Solving for alpha.air
air fraction, min, max = 0.276047 0.276047 0.276047
populationBalance bubbles: Iteration 1
diagonal:  Solving for f0.air, Initial residual = 0, Final residual = 0, No Iterations 0
diagonal:  Solving for f1.air, Initial residual = 0, Final residual = 0, No Iterations 0
diagonal:  Solving for f2.air, Initial residual = 0, Final residual = 0, No Iterations 0
diagonal:  Solving for f3.air, Initial residual = 0, Final residual = 0, No Iterations 0
diagonal:  Solving for f4.air, Initial residual = 0, Final residual = 0, No Iterations 0
diagonal:  Solving for f5.air, Initial residual = 0, Final residual = 0, No Iterations 0
diagonal:  Solving for f6.air, Initial residual = 0, Final residual = 0, No Iterations 0
diagonal:  Solving for f7.air, Initial residual = 0, Final residual = 0, No Iterations 0
diagonal:  Solving for f8.air, Initial residual = 0, Final residual = 0, No Iterations 0
diagonal:  Solving for f9.air, Initial residual = 0, Final residual = 0, No Iterations 0
diagonal:  Solving for f10.air, Initial residual = 0, Final residual = 0, No Iterations 0
diagonal:  Solving for f11.air, Initial residual = 0, Final residual = 0, No Iterations 0
diagonal:  Solving for f12.air, Initial residual = 0, Final residual = 0, No Iterations 0
diagonal:  Solving for f13.air, Initial residual = 0, Final residual = 0, No Iterations 0
diagonal:  Solving for f14.air, Initial residual = 0, Final residual = 0, No Iterations 0
diagonal:  Solving for f15.air, Initial residual = 0, Final residual = 0, No Iterations 0
diagonal:  Solving for f16.air, Initial residual = 0, Final residual = 0, No Iterations 0
diagonal:  Solving for f17.air, Initial residual = 0, Final residual = 0, No Iterations 0
diagonal:  Solving for f18.air, Initial residual = 0, Final residual = 0, No Iterations 0
diagonal:  Solving for f19.air, Initial residual = 0, Final residual = 0, No Iterations 0
diagonal:  Solving for f20.air, Initial residual = 0, Final residual = 0, No Iterations 0
diagonal:  Solving for f21.air, Initial residual = 0, Final residual = 0, No Iterations 0
diagonal:  Solving for f22.air, Initial residual = 0, Final residual = 0, No Iterations 0
diagonal:  Solving for f23.air, Initial residual = 0, Final residual = 0, No Iterations 0
diagonal:  Solving for f24.air, Initial residual = 0, Final residual = 0, No Iterations 0
diagonal:  Solving for f25.air, Initial residual = 0, Final residual = 0, No Iterations 0
diagonal:  Solving for f26.air, Initial residual = 0, Final residual = 0, No Iterations 0
diagonal:  Solving for f27.air, Initial residual = 0, Final residual = 0, No Iterations 0
diagonal:  Solving for f28.air, Initial residual = 0, Final residual = 0, No Iterations 0
bubbles sizeGroup phase fraction first, last = 1.03735e-32 0
air sizeGroups-sum volume fraction, min, max = 0.999988 0.999988 0.999988
air Sauter mean diameter, min, max = 2.58086 2.58086 2.58086
Constructing momentum equations
diagonal:  Solving for p_rgh, Initial residual = 0, Final residual = 0, No Iterations 0
PIMPLE: Iteration 2
MULES: Solving for alpha.air
air fraction, min, max = 0.276047 0.276047 0.276047
populationBalance bubbles: Iteration 1
diagonal:  Solving for f0.air, Initial residual = 0, Final residual = 0, No Iterations 0
diagonal:  Solving for f1.air, Initial residual = 0, Final residual = 0, No Iterations 0
diagonal:  Solving for f2.air, Initial residual = 0, Final residual = 0, No Iterations 0
diagonal:  Solving for f3.air, Initial residual = 0, Final residual = 0, No Iterations 0
diagonal:  Solving for f4.air, Initial residual = 0, Final residual = 0, No Iterations 0
diagonal:  Solving for f5.air, Initial residual = 0, Final residual = 0, No Iterations 0
diagonal:  Solving for f6.air, Initial residual = 0, Final residual = 0, No Iterations 0
diagonal:  Solving for f7.air, Initial residual = 0, Final residual = 0, No Iterations 0
diagonal:  Solving for f8.air, Initial residual = 0, Final residual = 0, No Iterations 0
diagonal:  Solving for f9.air, Initial residual = 0, Final residual = 0, No Iterations 0
diagonal:  Solving for f10.air, Initial residual = 0, Final residual = 0, No Iterations 0
diagonal:  Solving for f11.air, Initial residual = 0, Final residual = 0, No Iterations 0
diagonal:  Solving for f12.air, Initial residual = 0, Final residual = 0, No Iterations 0
diagonal:  Solving for f13.air, Initial residual = 0, Final residual = 0, No Iterations 0
diagonal:  Solving for f14.air, Initial residual = 0, Final residual = 0, No Iterations 0
diagonal:  Solving for f15.air, Initial residual = 0, Final residual = 0, No Iterations 0
diagonal:  Solving for f16.air, Initial residual = 0, Final residual = 0, No Iterations 0
diagonal:  Solving for f17.air, Initial residual = 0, Final residual = 0, No Iterations 0
diagonal:  Solving for f18.air, Initial residual = 0, Final residual = 0, No Iterations 0
diagonal:  Solving for f19.air, Initial residual = 0, Final residual = 0, No Iterations 0
diagonal:  Solving for f20.air, Initial residual = 0, Final residual = 0, No Iterations 0
diagonal:  Solving for f21.air, Initial residual = 0, Final residual = 0, No Iterations 0
diagonal:  Solving for f22.air, Initial residual = 0, Final residual = 0, No Iterations 0
diagonal:  Solving for f23.air, Initial residual = 0, Final residual = 0, No Iterations 0
diagonal:  Solving for f24.air, Initial residual = 0, Final residual = 0, No Iterations 0
diagonal:  Solving for f25.air, Initial residual = 0, Final residual = 0, No Iterations 0
diagonal:  Solving for f26.air, Initial residual = 0, Final residual = 0, No Iterations 0
diagonal:  Solving for f27.air, Initial residual = 0, Final residual = 0, No Iterations 0
diagonal:  Solving for f28.air, Initial residual = 0, Final residual = 0, No Iterations 0
bubbles sizeGroup phase fraction first, last = 6.04285e-32 0
air sizeGroups-sum volume fraction, min, max = 0.999997 0.999997 0.999997
air Sauter mean diameter, min, max = 2.58082 2.58082 2.58082
Constructing momentum equations
diagonal:  Solving for p_rgh, Initial residual = 0, Final residual = 0, No Iterations 0
ExecutionTime = 0.348339 s  ClockTime = 0 s

Courant Number mean: 0 max: 0
Time = 0.12s

PIMPLE: Iteration 1
MULES: Solving for alpha.air
air fraction, min, max = 0.275739 0.275739 0.275739
populationBalance bubbles: Iteration 1
diagonal:  Solving for f0.air, Initial residual = 0, Final residual = 0, No Iterations 0
diagonal:  Solving for f1.air, Initial residual = 0, Final residual = 0, No Iterations 0
diagonal:  Solving for f2.air, Initial residual = 0, Final residual = 0, No Iterations 0
diagonal:  Solving for f3.air, Initial residual = 0, Final residual = 0, No Iterations 0
diagonal:  Solving for f4.air, Initial residual = 0, Final residual = 0, No Iterations 0
diagonal:  Solving for f5.air, Initial residual = 0, Final residual = 0, No Iterations 0
diagonal:  Solving for f6.air, Initial residual = 0, Final residual = 0, No Iterations 0
diagonal:  Solving for f7.air, Initial residual = 0, Final residual = 0, No Iterations 0
diagonal:  Solving for f8.air, Initial residual = 0, Final residual = 0, No Iterations 0
diagonal:  Solving for f9.air, Initial residual = 0, Final residual = 0, No Iterations 0
diagonal:  Solving for f10.air, Initial residual = 0, Final residual = 0, No Iterations 0
diagonal:  Solving for f11.air, Initial residual = 0, Final residual = 0, No Iterations 0
diagonal:  Solving for f12.air, Initial residual = 0, Final residual = 0, No Iterations 0
diagonal:  Solving for f13.air, Initial residual = 0, Final residual = 0, No Iterations 0
diagonal:  Solving for f14.air, Initial residual = 0, Final residual = 0, No Iterations 0
diagonal:  Solving for f15.air, Initial residual = 0, Final residual = 0, No Iterations 0
diagonal:  Solving for f16.air, Initial residual = 0, Final residual = 0, No Iterations 0
diagonal:  Solving for f17.air, Initial residual = 0, Final residual = 0, No Iterations 0
diagonal:  Solving for f18.air, Initial residual = 0, Final residual = 0, No Iterations 0
diagonal:  Solving for f19.air, Initial residual = 0, Final residual = 0, No Iterations 0
diagonal:  Solving for f20.air, Initial residual = 0, Final residual = 0, No Iterations 0
diagonal:  Solving for f21.air, Initial residual = 0, Final residual = 0, No Iterations 0
diagonal:  Solving for f22.air, Initial residual = 0, Final residual = 0, No Iterations 0
diagonal:  Solving for f23.air, Initial residual = 0, Final residual = 0, No Iterations 0
diagonal:  Solving for f24.air, Initial residual = 0, Final residual = 0, No Iterations 0
diagonal:  Solving for f25.air, Initial residual = 0, Final residual = 0, No Iterations 0
diagonal:  Solving for f26.air, Initial residual = 0, Final residual = 0, No Iterations 0
diagonal:  Solving for f27.air, Initial residual = 0, Final residual = 0, No Iterations 0
diagonal:  Solving for f28.air, Initial residual = 0, Final residual = 0, No Iterations 0
bubbles sizeGroup phase fraction first, last = 3.05708e-31 0
air sizeGroups-sum volume fraction, min, max = 0.999987 0.999987 0.999987
air Sauter mean diameter, min, max = 2.57993 2.57993 2.57993
Constructing momentum equations
diagonal:  Solving for p_rgh, Initial residual = 0, Final residual = 0, No Iterations 0
PIMPLE: Iteration 2
MULES: Solving for alpha.air
air fraction, min, max = 0.275739 0.275739 0.275739
populationBalance bubbles: Iteration 1
diagonal:  Solving for f0.air, Initial residual = 0, Final residual = 0, No Iterations 0
diagonal:  Solving for f1.air, Initial residual = 0, Final residual = 0, No Iterations 0
diagonal:  Solving for f2.air, Initial residual = 0, Final residual = 0, No Iterations 0
diagonal:  Solving for f3.air, Initial residual = 0, Final residual = 0, No Iterations 0
diagonal:  Solving for f4.air, Initial residual = 0, Final residual = 0, No Iterations 0
diagonal:  Solving for f5.air, Initial residual = 0, Final residual = 0, No Iterations 0
diagonal:  Solving for f6.air, Initial residual = 0, Final residual = 0, No Iterations 0
diagonal:  Solving for f7.air, Initial residual = 0, Final residual = 0, No Iterations 0
diagonal:  Solving for f8.air, Initial residual = 0, Final residual = 0, No Iterations 0
diagonal:  Solving for f9.air, Initial residual = 0, Final residual = 0, No Iterations 0
diagonal:  Solving for f10.air, Initial residual = 0, Final residual = 0, No Iterations 0
diagonal:  Solving for f11.air, Initial residual = 0, Final residual = 0, No Iterations 0
diagonal:  Solving for f12.air, Initial residual = 0, Final residual = 0, No Iterations 0
diagonal:  Solving for f13.air, Initial residual = 0, Final residual = 0, No Iterations 0
diagonal:  Solving for f14.air, Initial residual = 0, Final residual = 0, No Iterations 0
diagonal:  Solving for f15.air, Initial residual = 0, Final residual = 0, No Iterations 0
diagonal:  Solving for f16.air, Initial residual = 0, Final residual = 0, No Iterations 0
diagonal:  Solving for f17.air, Initial residual = 0, Final residual = 0, No Iterations 0
diagonal:  Solving for f18.air, Initial residual = 0, Final residual = 0, No Iterations 0
diagonal:  Solving for f19.air, Initial residual = 0, Final residual = 0, No Iterations 0
diagonal:  Solving for f20.air, Initial residual = 0, Final residual = 0, No Iterations 0
diagonal:  Solving for f21.air, Initial residual = 0, Final residual = 0, No Iterations 0
diagonal:  Solving for f22.air, Initial residual = 0, Final residual = 0, No Iterations 0
diagonal:  Solving for f23.air, Initial residual = 0, Final residual = 0, No Iterations 0
diagonal:  Solving for f24.air, Initial residual = 0, Final residual = 0, No Iterations 0
diagonal:  Solving for f25.air, Initial residual = 0, Final residual = 0, No Iterations 0
diagonal:  Solving for f26.air, Initial residual = 0, Final residual = 0, No Iterations 0
diagonal:  Solving for f27.air, Initial residual = 0, Final residual = 0, No Iterations 0
diagonal:  Solving for f28.air, Initial residual = 0, Final residual = 0, No Iterations 0
bubbles sizeGroup phase fraction first, last = 1.06475e-30 0
air sizeGroups-sum volume fraction, min, max = 0.999997 0.999997 0.999997
air Sauter mean diameter, min, max = 2.57989 2.57989 2.57989
Constructing momentum equations
diagonal:  Solving for p_rgh, Initial residual = 0, Final residual = 0, No Iterations 0
ExecutionTime = 0.356875 s  ClockTime = 0 s

Courant Number mean: 0 max: 0
Time = 0.13s

PIMPLE: Iteration 1
MULES: Solving for alpha.air
air fraction, min, max = 0.275432 0.275432 0.275432
populationBalance bubbles: Iteration 1
diagonal:  Solving for f0.air, Initial residual = 0, Final residual = 0, No Iterations 0
diagonal:  Solving for f1.air, Initial residual = 0, Final residual = 0, No Iterations 0
diagonal:  Solving for f2.air, Initial residual = 0, Final residual = 0, No Iterations 0
diagonal:  Solving for f3.air, Initial residual = 0, Final residual = 0, No Iterations 0
diagonal:  Solving for f4.air, Initial residual = 0, Final residual = 0, No Iterations 0
diagonal:  Solving for f5.air, Initial residual = 0, Final residual = 0, No Iterations 0
diagonal:  Solving for f6.air, Initial residual = 0, Final residual = 0, No Iterations 0
diagonal:  Solving for f7.air, Initial residual = 0, Final residual = 0, No Iterations 0
diagonal:  Solving for f8.air, Initial residual = 0, Final residual = 0, No Iterations 0
diagonal:  Solving for f9.air, Initial residual = 0, Final residual = 0, No Iterations 0
diagonal:  Solving for f10.air, Initial residual = 0, Final residual = 0, No Iterations 0
diagonal:  Solving for f11.air, Initial residual = 0, Final residual = 0, No Iterations 0
diagonal:  Solving for f12.air, Initial residual = 0, Final residual = 0, No Iterations 0
diagonal:  Solving for f13.air, Initial residual = 0, Final residual = 0, No Iterations 0
diagonal:  Solving for f14.air, Initial residual = 0, Final residual = 0, No Iterations 0
diagonal:  Solving for f15.air, Initial residual = 0, Final residual = 0, No Iterations 0
diagonal:  Solving for f16.air, Initial residual = 0, Final residual = 0, No Iterations 0
diagonal:  Solving for f17.air, Initial residual = 0, Final residual = 0, No Iterations 0
diagonal:  Solving for f18.air, Initial residual = 0, Final residual = 0, No Iterations 0
diagonal:  Solving for f19.air, Initial residual = 0, Final residual = 0, No Iterations 0
diagonal:  Solving for f20.air, Initial residual = 0, Final residual = 0, No Iterations 0
diagonal:  Solving for f21.air, Initial residual = 0, Final residual = 0, No Iterations 0
diagonal:  Solving for f22.air, Initial residual = 0, Final residual = 0, No Iterations 0
diagonal:  Solving for f23.air, Initial residual = 0, Final residual = 0, No Iterations 0
diagonal:  Solving for f24.air, Initial residual = 0, Final residual = 0, No Iterations 0
diagonal:  Solving for f25.air, Initial residual = 0, Final residual = 0, No Iterations 0
diagonal:  Solving for f26.air, Initial residual = 0, Final residual = 0, No Iterations 0
diagonal:  Solving for f27.air, Initial residual = 0, Final residual = 0, No Iterations 0
diagonal:  Solving for f28.air, Initial residual = 0, Final residual = 0, No Iterations 0
bubbles sizeGroup phase fraction first, last = 3.98306e-30 0
air sizeGroups-sum volume fraction, min, max = 0.999987 0.999987 0.999987
air Sauter mean diameter, min, max = 2.57901 2.57901 2.57901
Constructing momentum equations
diagonal:  Solving for p_rgh, Initial residual = 0, Final residual = 0, No Iterations 0
PIMPLE: Iteration 2
MULES: Solving for alpha.air
[...]
diagonal:  Solving for f18.air, Initial residual = 0, Final residual = 0, No Iterations 0
diagonal:  Solving for f19.air, Initial residual = 0, Final residual = 0, No Iterations 0
diagonal:  Solving for f20.air, Initial residual = 0, Final residual = 0, No Iterations 0
diagonal:  Solving for f21.air, Initial residual = 0, Final residual = 0, No Iterations 0
diagonal:  Solving for f22.air, Initial residual = 0, Final residual = 0, No Iterations 0
diagonal:  Solving for f23.air, Initial residual = 0, Final residual = 0, No Iterations 0
diagonal:  Solving for f24.air, Initial residual = 0, Final residual = 0, No Iterations 0
diagonal:  Solving for f25.air, Initial residual = 0, Final residual = 0, No Iterations 0
diagonal:  Solving for f26.air, Initial residual = 0, Final residual = 0, No Iterations 0
diagonal:  Solving for f27.air, Initial residual = 0, Final residual = 0, No Iterations 0
diagonal:  Solving for f28.air, Initial residual = 0, Final residual = 0, No Iterations 0
bubbles sizeGroup phase fraction first, last = 4.3163e-05 0
air sizeGroups-sum volume fraction, min, max = 0.999725 0.999725 0.999725
air Sauter mean diameter, min, max = 2.17232 2.17232 2.17232
Constructing momentum equations
diagonal:  Solving for p_rgh, Initial residual = 0, Final residual = 0, No Iterations 0
ExecutionTime = 4.78866 s  ClockTime = 5 s

Courant Number mean: 0 max: 0
Time = 3.98s

PIMPLE: Iteration 1
MULES: Solving for alpha.air
air fraction, min, max = 0.156907 0.156907 0.156907
populationBalance bubbles: Iteration 1
diagonal:  Solving for f0.air, Initial residual = 0, Final residual = 0, No Iterations 0
diagonal:  Solving for f1.air, Initial residual = 0, Final residual = 0, No Iterations 0
diagonal:  Solving for f2.air, Initial residual = 0, Final residual = 0, No Iterations 0
diagonal:  Solving for f3.air, Initial residual = 0, Final residual = 0, No Iterations 0
diagonal:  Solving for f4.air, Initial residual = 0, Final residual = 0, No Iterations 0
diagonal:  Solving for f5.air, Initial residual = 0, Final residual = 0, No Iterations 0
diagonal:  Solving for f6.air, Initial residual = 0, Final residual = 0, No Iterations 0
diagonal:  Solving for f7.air, Initial residual = 0, Final residual = 0, No Iterations 0
diagonal:  Solving for f8.air, Initial residual = 0, Final residual = 0, No Iterations 0
diagonal:  Solving for f9.air, Initial residual = 0, Final residual = 0, No Iterations 0
diagonal:  Solving for f10.air, Initial residual = 0, Final residual = 0, No Iterations 0
diagonal:  Solving for f11.air, Initial residual = 0, Final residual = 0, No Iterations 0
diagonal:  Solving for f12.air, Initial residual = 0, Final residual = 0, No Iterations 0
diagonal:  Solving for f13.air, Initial residual = 0, Final residual = 0, No Iterations 0
diagonal:  Solving for f14.air, Initial residual = 0, Final residual = 0, No Iterations 0
diagonal:  Solving for f15.air, Initial residual = 0, Final residual = 0, No Iterations 0
diagonal:  Solving for f16.air, Initial residual = 0, Final residual = 0, No Iterations 0
diagonal:  Solving for f17.air, Initial residual = 0, Final residual = 0, No Iterations 0
diagonal:  Solving for f18.air, Initial residual = 0, Final residual = 0, No Iterations 0
diagonal:  Solving for f19.air, Initial residual = 0, Final residual = 0, No Iterations 0
diagonal:  Solving for f20.air, Initial residual = 0, Final residual = 0, No Iterations 0
diagonal:  Solving for f21.air, Initial residual = 0, Final residual = 0, No Iterations 0
diagonal:  Solving for f22.air, Initial residual = 0, Final residual = 0, No Iterations 0
diagonal:  Solving for f23.air, Initial residual = 0, Final residual = 0, No Iterations 0
diagonal:  Solving for f24.air, Initial residual = 0, Final residual = 0, No Iterations 0
diagonal:  Solving for f25.air, Initial residual = 0, Final residual = 0, No Iterations 0
diagonal:  Solving for f26.air, Initial residual = 0, Final residual = 0, No Iterations 0
diagonal:  Solving for f27.air, Initial residual = 0, Final residual = 0, No Iterations 0
diagonal:  Solving for f28.air, Initial residual = 0, Final residual = 0, No Iterations 0
bubbles sizeGroup phase fraction first, last = 4.4082e-05 0
air sizeGroups-sum volume fraction, min, max = 0.999703 0.999703 0.999703
air Sauter mean diameter, min, max = 2.1712 2.1712 2.1712
Constructing momentum equations
diagonal:  Solving for p_rgh, Initial residual = 0, Final residual = 0, No Iterations 0
PIMPLE: Iteration 2
MULES: Solving for alpha.air
air fraction, min, max = 0.156907 0.156907 0.156907
populationBalance bubbles: Iteration 1
diagonal:  Solving for f0.air, Initial residual = 0, Final residual = 0, No Iterations 0
diagonal:  Solving for f1.air, Initial residual = 0, Final residual = 0, No Iterations 0
diagonal:  Solving for f2.air, Initial residual = 0, Final residual = 0, No Iterations 0
diagonal:  Solving for f3.air, Initial residual = 0, Final residual = 0, No Iterations 0
diagonal:  Solving for f4.air, Initial residual = 0, Final residual = 0, No Iterations 0
diagonal:  Solving for f5.air, Initial residual = 0, Final residual = 0, No Iterations 0
diagonal:  Solving for f6.air, Initial residual = 0, Final residual = 0, No Iterations 0
diagonal:  Solving for f7.air, Initial residual = 0, Final residual = 0, No Iterations 0
diagonal:  Solving for f8.air, Initial residual = 0, Final residual = 0, No Iterations 0
diagonal:  Solving for f9.air, Initial residual = 0, Final residual = 0, No Iterations 0
diagonal:  Solving for f10.air, Initial residual = 0, Final residual = 0, No Iterations 0
diagonal:  Solving for f11.air, Initial residual = 0, Final residual = 0, No Iterations 0
diagonal:  Solving for f12.air, Initial residual = 0, Final residual = 0, No Iterations 0
diagonal:  Solving for f13.air, Initial residual = 0, Final residual = 0, No Iterations 0
diagonal:  Solving for f14.air, Initial residual = 0, Final residual = 0, No Iterations 0
diagonal:  Solving for f15.air, Initial residual = 0, Final residual = 0, No Iterations 0
diagonal:  Solving for f16.air, Initial residual = 0, Final residual = 0, No Iterations 0
diagonal:  Solving for f17.air, Initial residual = 0, Final residual = 0, No Iterations 0
diagonal:  Solving for f18.air, Initial residual = 0, Final residual = 0, No Iterations 0
diagonal:  Solving for f19.air, Initial residual = 0, Final residual = 0, No Iterations 0
diagonal:  Solving for f20.air, Initial residual = 0, Final residual = 0, No Iterations 0
diagonal:  Solving for f21.air, Initial residual = 0, Final residual = 0, No Iterations 0
diagonal:  Solving for f22.air, Initial residual = 0, Final residual = 0, No Iterations 0
diagonal:  Solving for f23.air, Initial residual = 0, Final residual = 0, No Iterations 0
diagonal:  Solving for f24.air, Initial residual = 0, Final residual = 0, No Iterations 0
diagonal:  Solving for f25.air, Initial residual = 0, Final residual = 0, No Iterations 0
diagonal:  Solving for f26.air, Initial residual = 0, Final residual = 0, No Iterations 0
diagonal:  Solving for f27.air, Initial residual = 0, Final residual = 0, No Iterations 0
diagonal:  Solving for f28.air, Initial residual = 0, Final residual = 0, No Iterations 0
bubbles sizeGroup phase fraction first, last = 4.41159e-05 0
air sizeGroups-sum volume fraction, min, max = 0.999724 0.999724 0.999724
air Sauter mean diameter, min, max = 2.17112 2.17112 2.17112
Constructing momentum equations
diagonal:  Solving for p_rgh, Initial residual = 0, Final residual = 0, No Iterations 0
ExecutionTime = 4.80012 s  ClockTime = 5 s

Courant Number mean: 0 max: 0
Time = 3.99s

PIMPLE: Iteration 1
MULES: Solving for alpha.air
air fraction, min, max = 0.1566 0.1566 0.1566
populationBalance bubbles: Iteration 1
diagonal:  Solving for f0.air, Initial residual = 0, Final residual = 0, No Iterations 0
diagonal:  Solving for f1.air, Initial residual = 0, Final residual = 0, No Iterations 0
diagonal:  Solving for f2.air, Initial residual = 0, Final residual = 0, No Iterations 0
diagonal:  Solving for f3.air, Initial residual = 0, Final residual = 0, No Iterations 0
diagonal:  Solving for f4.air, Initial residual = 0, Final residual = 0, No Iterations 0
diagonal:  Solving for f5.air, Initial residual = 0, Final residual = 0, No Iterations 0
diagonal:  Solving for f6.air, Initial residual = 0, Final residual = 0, No Iterations 0
diagonal:  Solving for f7.air, Initial residual = 0, Final residual = 0, No Iterations 0
diagonal:  Solving for f8.air, Initial residual = 0, Final residual = 0, No Iterations 0
diagonal:  Solving for f9.air, Initial residual = 0, Final residual = 0, No Iterations 0
diagonal:  Solving for f10.air, Initial residual = 0, Final residual = 0, No Iterations 0
diagonal:  Solving for f11.air, Initial residual = 0, Final residual = 0, No Iterations 0
diagonal:  Solving for f12.air, Initial residual = 0, Final residual = 0, No Iterations 0
diagonal:  Solving for f13.air, Initial residual = 0, Final residual = 0, No Iterations 0
diagonal:  Solving for f14.air, Initial residual = 0, Final residual = 0, No Iterations 0
diagonal:  Solving for f15.air, Initial residual = 0, Final residual = 0, No Iterations 0
diagonal:  Solving for f16.air, Initial residual = 0, Final residual = 0, No Iterations 0
diagonal:  Solving for f17.air, Initial residual = 0, Final residual = 0, No Iterations 0
diagonal:  Solving for f18.air, Initial residual = 0, Final residual = 0, No Iterations 0
diagonal:  Solving for f19.air, Initial residual = 0, Final residual = 0, No Iterations 0
diagonal:  Solving for f20.air, Initial residual = 0, Final residual = 0, No Iterations 0
diagonal:  Solving for f21.air, Initial residual = 0, Final residual = 0, No Iterations 0
diagonal:  Solving for f22.air, Initial residual = 0, Final residual = 0, No Iterations 0
diagonal:  Solving for f23.air, Initial residual = 0, Final residual = 0, No Iterations 0
diagonal:  Solving for f24.air, Initial residual = 0, Final residual = 0, No Iterations 0
diagonal:  Solving for f25.air, Initial residual = 0, Final residual = 0, No Iterations 0
diagonal:  Solving for f26.air, Initial residual = 0, Final residual = 0, No Iterations 0
diagonal:  Solving for f27.air, Initial residual = 0, Final residual = 0, No Iterations 0
diagonal:  Solving for f28.air, Initial residual = 0, Final residual = 0, No Iterations 0
bubbles sizeGroup phase fraction first, last = 4.50504e-05 0
air sizeGroups-sum volume fraction, min, max = 0.999702 0.999702 0.999702
air Sauter mean diameter, min, max = 2.17 2.17 2.17
Constructing momentum equations
diagonal:  Solving for p_rgh, Initial residual = 0, Final residual = 0, No Iterations 0
PIMPLE: Iteration 2
MULES: Solving for alpha.air
air fraction, min, max = 0.156599 0.156599 0.156599
populationBalance bubbles: Iteration 1
diagonal:  Solving for f0.air, Initial residual = 0, Final residual = 0, No Iterations 0
diagonal:  Solving for f1.air, Initial residual = 0, Final residual = 0, No Iterations 0
diagonal:  Solving for f2.air, Initial residual = 0, Final residual = 0, No Iterations 0
diagonal:  Solving for f3.air, Initial residual = 0, Final residual = 0, No Iterations 0
diagonal:  Solving for f4.air, Initial residual = 0, Final residual = 0, No Iterations 0
diagonal:  Solving for f5.air, Initial residual = 0, Final residual = 0, No Iterations 0
diagonal:  Solving for f6.air, Initial residual = 0, Final residual = 0, No Iterations 0
diagonal:  Solving for f7.air, Initial residual = 0, Final residual = 0, No Iterations 0
diagonal:  Solving for f8.air, Initial residual = 0, Final residual = 0, No Iterations 0
diagonal:  Solving for f9.air, Initial residual = 0, Final residual = 0, No Iterations 0
diagonal:  Solving for f10.air, Initial residual = 0, Final residual = 0, No Iterations 0
diagonal:  Solving for f11.air, Initial residual = 0, Final residual = 0, No Iterations 0
diagonal:  Solving for f12.air, Initial residual = 0, Final residual = 0, No Iterations 0
diagonal:  Solving for f13.air, Initial residual = 0, Final residual = 0, No Iterations 0
diagonal:  Solving for f14.air, Initial residual = 0, Final residual = 0, No Iterations 0
diagonal:  Solving for f15.air, Initial residual = 0, Final residual = 0, No Iterations 0
diagonal:  Solving for f16.air, Initial residual = 0, Final residual = 0, No Iterations 0
diagonal:  Solving for f17.air, Initial residual = 0, Final residual = 0, No Iterations 0
diagonal:  Solving for f18.air, Initial residual = 0, Final residual = 0, No Iterations 0
diagonal:  Solving for f19.air, Initial residual = 0, Final residual = 0, No Iterations 0
diagonal:  Solving for f20.air, Initial residual = 0, Final residual = 0, No Iterations 0
diagonal:  Solving for f21.air, Initial residual = 0, Final residual = 0, No Iterations 0
diagonal:  Solving for f22.air, Initial residual = 0, Final residual = 0, No Iterations 0
diagonal:  Solving for f23.air, Initial residual = 0, Final residual = 0, No Iterations 0
diagonal:  Solving for f24.air, Initial residual = 0, Final residual = 0, No Iterations 0
diagonal:  Solving for f25.air, Initial residual = 0, Final residual = 0, No Iterations 0
diagonal:  Solving for f26.air, Initial residual = 0, Final residual = 0, No Iterations 0
diagonal:  Solving for f27.air, Initial residual = 0, Final residual = 0, No Iterations 0
diagonal:  Solving for f28.air, Initial residual = 0, Final residual = 0, No Iterations 0
bubbles sizeGroup phase fraction first, last = 4.50848e-05 0
air sizeGroups-sum volume fraction, min, max = 0.999722 0.999722 0.999722
air Sauter mean diameter, min, max = 2.16993 2.16993 2.16993
Constructing momentum equations
diagonal:  Solving for p_rgh, Initial residual = 0, Final residual = 0, No Iterations 0
ExecutionTime = 4.81897 s  ClockTime = 5 s

Courant Number mean: 0 max: 0
Time = 4s

PIMPLE: Iteration 1
MULES: Solving for alpha.air
air fraction, min, max = 0.156292 0.156292 0.156292
populationBalance bubbles: Iteration 1
diagonal:  Solving for f0.air, Initial residual = 0, Final residual = 0, No Iterations 0
diagonal:  Solving for f1.air, Initial residual = 0, Final residual = 0, No Iterations 0
diagonal:  Solving for f2.air, Initial residual = 0, Final residual = 0, No Iterations 0
diagonal:  Solving for f3.air, Initial residual = 0, Final residual = 0, No Iterations 0
diagonal:  Solving for f4.air, Initial residual = 0, Final residual = 0, No Iterations 0
diagonal:  Solving for f5.air, Initial residual = 0, Final residual = 0, No Iterations 0
diagonal:  Solving for f6.air, Initial residual = 0, Final residual = 0, No Iterations 0
diagonal:  Solving for f7.air, Initial residual = 0, Final residual = 0, No Iterations 0
diagonal:  Solving for f8.air, Initial residual = 0, Final residual = 0, No Iterations 0
diagonal:  Solving for f9.air, Initial residual = 0, Final residual = 0, No Iterations 0
diagonal:  Solving for f10.air, Initial residual = 0, Final residual = 0, No Iterations 0
diagonal:  Solving for f11.air, Initial residual = 0, Final residual = 0, No Iterations 0
diagonal:  Solving for f12.air, Initial residual = 0, Final residual = 0, No Iterations 0
diagonal:  Solving for f13.air, Initial residual = 0, Final residual = 0, No Iterations 0
diagonal:  Solving for f14.air, Initial residual = 0, Final residual = 0, No Iterations 0
diagonal:  Solving for f15.air, Initial residual = 0, Final residual = 0, No Iterations 0
diagonal:  Solving for f16.air, Initial residual = 0, Final residual = 0, No Iterations 0
diagonal:  Solving for f17.air, Initial residual = 0, Final residual = 0, No Iterations 0
diagonal:  Solving for f18.air, Initial residual = 0, Final residual = 0, No Iterations 0
diagonal:  Solving for f19.air, Initial residual = 0, Final residual = 0, No Iterations 0
diagonal:  Solving for f20.air, Initial residual = 0, Final residual = 0, No Iterations 0
diagonal:  Solving for f21.air, Initial residual = 0, Final residual = 0, No Iterations 0
diagonal:  Solving for f22.air, Initial residual = 0, Final residual = 0, No Iterations 0
diagonal:  Solving for f23.air, Initial residual = 0, Final residual = 0, No Iterations 0
diagonal:  Solving for f24.air, Initial residual = 0, Final residual = 0, No Iterations 0
diagonal:  Solving for f25.air, Initial residual = 0, Final residual = 0, No Iterations 0
diagonal:  Solving for f26.air, Initial residual = 0, Final residual = 0, No Iterations 0
diagonal:  Solving for f27.air, Initial residual = 0, Final residual = 0, No Iterations 0
diagonal:  Solving for f28.air, Initial residual = 0, Final residual = 0, No Iterations 0
bubbles sizeGroup phase fraction first, last = 4.6035e-05 0
air sizeGroups-sum volume fraction, min, max = 0.9997 0.9997 0.9997
air Sauter mean diameter, min, max = 2.16881 2.16881 2.16881
Constructing momentum equations
diagonal:  Solving for p_rgh, Initial residual = 0, Final residual = 0, No Iterations 0
PIMPLE: Iteration 2
MULES: Solving for alpha.air
air fraction, min, max = 0.156291 0.156291 0.156291
populationBalance bubbles: Iteration 1
diagonal:  Solving for f0.air, Initial residual = 0, Final residual = 0, No Iterations 0
diagonal:  Solving for f1.air, Initial residual = 0, Final residual = 0, No Iterations 0
diagonal:  Solving for f2.air, Initial residual = 0, Final residual = 0, No Iterations 0
diagonal:  Solving for f3.air, Initial residual = 0, Final residual = 0, No Iterations 0
diagonal:  Solving for f4.air, Initial residual = 0, Final residual = 0, No Iterations 0
diagonal:  Solving for f5.air, Initial residual = 0, Final residual = 0, No Iterations 0
diagonal:  Solving for f6.air, Initial residual = 0, Final residual = 0, No Iterations 0
diagonal:  Solving for f7.air, Initial residual = 0, Final residual = 0, No Iterations 0
diagonal:  Solving for f8.air, Initial residual = 0, Final residual = 0, No Iterations 0
diagonal:  Solving for f9.air, Initial residual = 0, Final residual = 0, No Iterations 0
diagonal:  Solving for f10.air, Initial residual = 0, Final residual = 0, No Iterations 0
diagonal:  Solving for f11.air, Initial residual = 0, Final residual = 0, No Iterations 0
diagonal:  Solving for f12.air, Initial residual = 0, Final residual = 0, No Iterations 0
diagonal:  Solving for f13.air, Initial residual = 0, Final residual = 0, No Iterations 0
diagonal:  Solving for f14.air, Initial residual = 0, Final residual = 0, No Iterations 0
diagonal:  Solving for f15.air, Initial residual = 0, Final residual = 0, No Iterations 0
diagonal:  Solving for f16.air, Initial residual = 0, Final residual = 0, No Iterations 0
diagonal:  Solving for f17.air, Initial residual = 0, Final residual = 0, No Iterations 0
diagonal:  Solving for f18.air, Initial residual = 0, Final residual = 0, No Iterations 0
diagonal:  Solving for f19.air, Initial residual = 0, Final residual = 0, No Iterations 0
diagonal:  Solving for f20.air, Initial residual = 0, Final residual = 0, No Iterations 0
diagonal:  Solving for f21.air, Initial residual = 0, Final residual = 0, No Iterations 0
diagonal:  Solving for f22.air, Initial residual = 0, Final residual = 0, No Iterations 0
diagonal:  Solving for f23.air, Initial residual = 0, Final residual = 0, No Iterations 0
diagonal:  Solving for f24.air, Initial residual = 0, Final residual = 0, No Iterations 0
diagonal:  Solving for f25.air, Initial residual = 0, Final residual = 0, No Iterations 0
diagonal:  Solving for f26.air, Initial residual = 0, Final residual = 0, No Iterations 0
diagonal:  Solving for f27.air, Initial residual = 0, Final residual = 0, No Iterations 0
diagonal:  Solving for f28.air, Initial residual = 0, Final residual = 0, No Iterations 0
bubbles sizeGroup phase fraction first, last = 4.60699e-05 0
air sizeGroups-sum volume fraction, min, max = 0.999721 0.999721 0.999721
air Sauter mean diameter, min, max = 2.16873 2.16873 2.16873
Constructing momentum equations
diagonal:  Solving for p_rgh, Initial residual = 0, Final residual = 0, No Iterations 0
ExecutionTime = 4.84321 s  ClockTime = 5 s

End

