./Allrun: 104: foamDictionary: not found
