Expanding #calc at line 22 in file "testCalcNewton"
Creating new library in "dynamicCode/_c3134a1b99c32bb08029c0e3c91e46ac1211e29f/platforms/linux64GccDPInt32Opt/lib/libcodeStream_c3134a1b99c32bb08029c0e3c91e46ac1211e29f.so"
"/home/as/openfoam/OpenFOAM-12/etc/codeTemplates/dynamicCode/codeStreamTemplate.C" "/home/as/openfoam/OpenFOAM-12/test/dictionary/dynamicCode/_c3134a1b99c32bb08029c0e3c91e46ac1211e29f/codeStreamTemplate.C"
Invoking "wmake -s libso /home/as/openfoam/OpenFOAM-12/test/dictionary/dynamicCode/_c3134a1b99c32bb08029c0e3c91e46ac1211e29f"
wmake libso /home/as/openfoam/OpenFOAM-12/test/dictionary/dynamicCode/_c3134a1b99c32bb08029c0e3c91e46ac1211e29f
    ln: ./lnInclude
make[1]: Entering directory '/home/as/openfoam/OpenFOAM-12/test/dictionary/dynamicCode/_c3134a1b99c32bb08029c0e3c91e46ac1211e29f'
    wmkdep: codeStreamTemplate.C
    Ctoo: codeStreamTemplate.C
    ld: /home/as/openfoam/OpenFOAM-12/test/dictionary/dynamicCode/_c3134a1b99c32bb08029c0e3c91e46ac1211e29f/../platforms/linux64GccDPInt32Opt/lib/libcodeStream_c3134a1b99c32bb08029c0e3c91e46ac1211e29f.so
/home/as/miniconda3/envs/paraview_env/bin/../lib/gcc/x86_64-conda-linux-gnu/13.3.0/../../../../x86_64-conda-linux-gnu/bin/ld.bfd: warning: libz.so.1, needed by /home/as/openfoam/OpenFOAM-12/platforms/linux64GccDPInt32Opt/lib/libOpenFOAM.so, not found (try using -rpath or -rpath-link)
/home/as/miniconda3/envs/paraview_env/bin/../lib/gcc/x86_64-conda-linux-gnu/13.3.0/../../../../x86_64-conda-linux-gnu/bin/ld.bfd: warning: libnuma.so.1, needed by /home/as/openfoam/ThirdParty-12/platforms/linux64Gcc/openmpi-2.1.1/lib64/libopen-pal.so.20, not found (try using -rpath or -rpath-link)
/home/as/miniconda3/envs/paraview_env/bin/../lib/gcc/x86_64-conda-linux-gnu/13.3.0/../../../../x86_64-conda-linux-gnu/bin/ld.bfd: warning: libOpenCL.so.1, needed by /home/as/openfoam/ThirdParty-12/platforms/linux64Gcc/openmpi-2.1.1/lib64/libopen-pal.so.20, not found (try using -rpath or -rpath-link)
/home/as/miniconda3/envs/paraview_env/bin/../lib/gcc/x86_64-conda-linux-gnu/13.3.0/../../../../x86_64-conda-linux-gnu/bin/ld.bfd: warning: libcudart.so.12, needed by /home/as/openfoam/ThirdParty-12/platforms/linux64Gcc/openmpi-2.1.1/lib64/libopen-pal.so.20, not found (try using -rpath or -rpath-link)
/home/as/miniconda3/envs/paraview_env/bin/../lib/gcc/x86_64-conda-linux-gnu/13.3.0/../../../../x86_64-conda-linux-gnu/bin/ld.bfd: warning: libnvidia-ml.so.1, needed by /home/as/openfoam/ThirdParty-12/platforms/linux64Gcc/openmpi-2.1.1/lib64/libopen-pal.so.20, not found (try using -rpath or -rpath-link)
/home/as/miniconda3/envs/paraview_env/bin/../lib/gcc/x86_64-conda-linux-gnu/13.3.0/../../../../x86_64-conda-linux-gnu/bin/ld.bfd: warning: libz.so.1, needed by /home/as/openfoam/OpenFOAM-12/platforms/linux64GccDPInt32Opt/lib/libOpenFOAM.so, not found (try using -rpath or -rpath-link)
/home/as/miniconda3/envs/paraview_env/bin/../lib/gcc/x86_64-conda-linux-gnu/13.3.0/../../../../x86_64-conda-linux-gnu/bin/ld.bfd: warning: libnuma.so.1, needed by /home/as/openfoam/ThirdParty-12/platforms/linux64Gcc/openmpi-2.1.1/lib64/libopen-pal.so.20, not found (try using -rpath or -rpath-link)
/home/as/miniconda3/envs/paraview_env/bin/../lib/gcc/x86_64-conda-linux-gnu/13.3.0/../../../../x86_64-conda-linux-gnu/bin/ld.bfd: warning: libOpenCL.so.1, needed by /home/as/openfoam/ThirdParty-12/platforms/linux64Gcc/openmpi-2.1.1/lib64/libopen-pal.so.20, not found (try using -rpath or -rpath-link)
/home/as/miniconda3/envs/paraview_env/bin/../lib/gcc/x86_64-conda-linux-gnu/13.3.0/../../../../x86_64-conda-linux-gnu/bin/ld.bfd: warning: libcudart.so.12, needed by /home/as/openfoam/ThirdParty-12/platforms/linux64Gcc/openmpi-2.1.1/lib64/libopen-pal.so.20, not found (try using -rpath or -rpath-link)
/home/as/miniconda3/envs/paraview_env/bin/../lib/gcc/x86_64-conda-linux-gnu/13.3.0/../../../../x86_64-conda-linux-gnu/bin/ld.bfd: warning: libnvidia-ml.so.1, needed by /home/as/openfoam/ThirdParty-12/platforms/linux64Gcc/openmpi-2.1.1/lib64/libopen-pal.so.20, not found (try using -rpath or -rpath-link)
make[1]: Leaving directory '/home/as/openfoam/OpenFOAM-12/test/dictionary/dynamicCode/_c3134a1b99c32bb08029c0e3c91e46ac1211e29f'
Creating new library in "dynamicCode/_40a1ff5c28b197db18cd537704b5a4f68d9c4737/platforms/linux64GccDPInt32Opt/lib/libcodeStream_40a1ff5c28b197db18cd537704b5a4f68d9c4737.so"
"/home/as/openfoam/OpenFOAM-12/etc/codeTemplates/dynamicCode/codeStreamTemplate.C" "/home/as/openfoam/OpenFOAM-12/test/dictionary/dynamicCode/_40a1ff5c28b197db18cd537704b5a4f68d9c4737/codeStreamTemplate.C"
Invoking "wmake -s libso /home/as/openfoam/OpenFOAM-12/test/dictionary/dynamicCode/_40a1ff5c28b197db18cd537704b5a4f68d9c4737"
wmake libso /home/as/openfoam/OpenFOAM-12/test/dictionary/dynamicCode/_40a1ff5c28b197db18cd537704b5a4f68d9c4737
    ln: ./lnInclude
make[1]: Entering directory '/home/as/openfoam/OpenFOAM-12/test/dictionary/dynamicCode/_40a1ff5c28b197db18cd537704b5a4f68d9c4737'
    wmkdep: codeStreamTemplate.C
    Ctoo: codeStreamTemplate.C
    ld: /home/as/openfoam/OpenFOAM-12/test/dictionary/dynamicCode/_40a1ff5c28b197db18cd537704b5a4f68d9c4737/../platforms/linux64GccDPInt32Opt/lib/libcodeStream_40a1ff5c28b197db18cd537704b5a4f68d9c4737.so
/home/as/miniconda3/envs/paraview_env/bin/../lib/gcc/x86_64-conda-linux-gnu/13.3.0/../../../../x86_64-conda-linux-gnu/bin/ld.bfd: warning: libz.so.1, needed by /home/as/openfoam/OpenFOAM-12/platforms/linux64GccDPInt32Opt/lib/libOpenFOAM.so, not found (try using -rpath or -rpath-link)
/home/as/miniconda3/envs/paraview_env/bin/../lib/gcc/x86_64-conda-linux-gnu/13.3.0/../../../../x86_64-conda-linux-gnu/bin/ld.bfd: warning: libnuma.so.1, needed by /home/as/openfoam/ThirdParty-12/platforms/linux64Gcc/openmpi-2.1.1/lib64/libopen-pal.so.20, not found (try using -rpath or -rpath-link)
/home/as/miniconda3/envs/paraview_env/bin/../lib/gcc/x86_64-conda-linux-gnu/13.3.0/../../../../x86_64-conda-linux-gnu/bin/ld.bfd: warning: libOpenCL.so.1, needed by /home/as/openfoam/ThirdParty-12/platforms/linux64Gcc/openmpi-2.1.1/lib64/libopen-pal.so.20, not found (try using -rpath or -rpath-link)
/home/as/miniconda3/envs/paraview_env/bin/../lib/gcc/x86_64-conda-linux-gnu/13.3.0/../../../../x86_64-conda-linux-gnu/bin/ld.bfd: warning: libcudart.so.12, needed by /home/as/openfoam/ThirdParty-12/platforms/linux64Gcc/openmpi-2.1.1/lib64/libopen-pal.so.20, not found (try using -rpath or -rpath-link)
/home/as/miniconda3/envs/paraview_env/bin/../lib/gcc/x86_64-conda-linux-gnu/13.3.0/../../../../x86_64-conda-linux-gnu/bin/ld.bfd: warning: libnvidia-ml.so.1, needed by /home/as/openfoam/ThirdParty-12/platforms/linux64Gcc/openmpi-2.1.1/lib64/libopen-pal.so.20, not found (try using -rpath or -rpath-link)
/home/as/miniconda3/envs/paraview_env/bin/../lib/gcc/x86_64-conda-linux-gnu/13.3.0/../../../../x86_64-conda-linux-gnu/bin/ld.bfd: warning: libz.so.1, needed by /home/as/openfoam/OpenFOAM-12/platforms/linux64GccDPInt32Opt/lib/libOpenFOAM.so, not found (try using -rpath or -rpath-link)
/home/as/miniconda3/envs/paraview_env/bin/../lib/gcc/x86_64-conda-linux-gnu/13.3.0/../../../../x86_64-conda-linux-gnu/bin/ld.bfd: warning: libnuma.so.1, needed by /home/as/openfoam/ThirdParty-12/platforms/linux64Gcc/openmpi-2.1.1/lib64/libopen-pal.so.20, not found (try using -rpath or -rpath-link)
/home/as/miniconda3/envs/paraview_env/bin/../lib/gcc/x86_64-conda-linux-gnu/13.3.0/../../../../x86_64-conda-linux-gnu/bin/ld.bfd: warning: libOpenCL.so.1, needed by /home/as/openfoam/ThirdParty-12/platforms/linux64Gcc/openmpi-2.1.1/lib64/libopen-pal.so.20, not found (try using -rpath or -rpath-link)
/home/as/miniconda3/envs/paraview_env/bin/../lib/gcc/x86_64-conda-linux-gnu/13.3.0/../../../../x86_64-conda-linux-gnu/bin/ld.bfd: warning: libcudart.so.12, needed by /home/as/openfoam/ThirdParty-12/platforms/linux64Gcc/openmpi-2.1.1/lib64/libopen-pal.so.20, not found (try using -rpath or -rpath-link)
/home/as/miniconda3/envs/paraview_env/bin/../lib/gcc/x86_64-conda-linux-gnu/13.3.0/../../../../x86_64-conda-linux-gnu/bin/ld.bfd: warning: libnvidia-ml.so.1, needed by /home/as/openfoam/ThirdParty-12/platforms/linux64Gcc/openmpi-2.1.1/lib64/libopen-pal.so.20, not found (try using -rpath or -rpath-link)
make[1]: Leaving directory '/home/as/openfoam/OpenFOAM-12/test/dictionary/dynamicCode/_40a1ff5c28b197db18cd537704b5a4f68d9c4737'
/*--------------------------------*- C++ -*----------------------------------*\
  =========                 |
  \\      /  F ield         | OpenFOAM: The Open Source CFD Toolbox
   \\    /   O peration     | Website:  https://openfoam.org
    \\  /    A nd           | Version:  12
     \\/     M anipulation  |
\*---------------------------------------------------------------------------*/
//
// "testCalcNewton"
//
FoamFile
{
    format          ascii;
    class           dictionary;
    object          testCalcNewton;
}

A               1;

B               1;

x               0.53101;

x0              -2;

xn              2;

n               101;


// ************************************************************************* //
