/*---------------------------------------------------------------------------*\
  =========                 |
  \\      /  F ield         | OpenFOAM: The Open Source CFD Toolbox
   \\    /   O peration     | Website:  https://openfoam.org
    \\  /    A nd           | Version:  12
     \\/     M anipulation  |
\*---------------------------------------------------------------------------*/
Build  : 12-cc05c1b03c38
Exec   : foamRun
Date   : Oct 10 2024
Time   : 23:15:25
Host   : "DESKTOP-KBPC6IC"
PID    : 4629
I/O    : uncollated
Case   : /home/as/openfoam/OpenFOAM-12/test/multiphaseEuler/populationBalance/drift
nProcs : 1
sigFpe : Enabling floating point exception trapping (FOAM_SIGFPE).
fileModificationChecking : Monitoring run-time modified files using timeStampMaster (fileModificationSkew 10)
allowSystemOperations : Allowing user-supplied system call operations

// * * * * * * * * * * * * * * * * * * * * * * * * * * * * * * * * * * * * * //
Create time

Create mesh for time = 0

Selecting solver multiphaseEuler
Selecting phaseSystem populationBalanceMultiphaseSystem
No MRF models present

Selecting phaseModel for air: pureIsothermalPhaseModel
Selecting diameterModel for phase air: velocityGroup
Selecting thermodynamics package 
{
    type            heRhoThermo;
    mixture         pureMixture;
    transport       const;
    thermo          hConst;
    equationOfState perfectGas;
    specie          specie;
    energy          sensibleInternalEnergy;
}

Calculating face flux field phi.air
Selecting turbulence model type laminar
Selecting laminar stress model Stokes
Selecting phaseModel for water: pureIsothermalPhaseModel
Selecting diameterModel for phase water: none
Selecting thermodynamics package 
{
    type            heRhoThermo;
    mixture         pureMixture;
    transport       const;
    thermo          hConst;
    equationOfState rhoConst;
    specie          specie;
    energy          sensibleInternalEnergy;
}

Calculating face flux field phi.water
Selecting turbulence model type laminar
Selecting laminar stress model Stokes
Setting up population balance: bubbles
Selecting drift model for bubbles: constant
Courant Number mean: 0 max: 0
Creating fvModels from "constant/fvModels"

Selecting finite volume model type massSource
    Name: waterSink
    - selecting all cells
    - selected 1 cell(s) with volume 1

PIMPLE: No convergence criteria found


PIMPLE: No corrector convergence criteria found
        Calculations will do 2 corrections


PIMPLE: Operating solver in transient mode with 2 outer correctors



Starting time loop

    - selecting all cells
    - selected 1 cell(s) with volume 1
Courant Number mean: 0 max: 0
Time = 0.01s

PIMPLE: Iteration 1
MULES: Solving for alpha.air
air fraction, min, max = 0.0665534 0.0665534 0.0665534
populationBalance bubbles: Iteration 1
diagonal:  Solving for f0.air, Initial residual = 0, Final residual = 0, No Iterations 0
diagonal:  Solving for f1.air, Initial residual = 0, Final residual = 0, No Iterations 0
diagonal:  Solving for f2.air, Initial residual = 0, Final residual = 0, No Iterations 0
diagonal:  Solving for f3.air, Initial residual = 0, Final residual = 0, No Iterations 0
diagonal:  Solving for f4.air, Initial residual = 0, Final residual = 0, No Iterations 0
diagonal:  Solving for f5.air, Initial residual = 0, Final residual = 0, No Iterations 0
diagonal:  Solving for f6.air, Initial residual = 0, Final residual = 0, No Iterations 0
diagonal:  Solving for f7.air, Initial residual = 0, Final residual = 0, No Iterations 0
diagonal:  Solving for f8.air, Initial residual = 0, Final residual = 0, No Iterations 0
diagonal:  Solving for f9.air, Initial residual = 0, Final residual = 0, No Iterations 0
diagonal:  Solving for f10.air, Initial residual = 0, Final residual = 0, No Iterations 0
diagonal:  Solving for f11.air, Initial residual = 0, Final residual = 0, No Iterations 0
diagonal:  Solving for f12.air, Initial residual = 0, Final residual = 0, No Iterations 0
diagonal:  Solving for f13.air, Initial residual = 0, Final residual = 0, No Iterations 0
diagonal:  Solving for f14.air, Initial residual = 0, Final residual = 0, No Iterations 0
diagonal:  Solving for f15.air, Initial residual = 0, Final residual = 0, No Iterations 0
diagonal:  Solving for f16.air, Initial residual = 0, Final residual = 0, No Iterations 0
diagonal:  Solving for f17.air, Initial residual = 0, Final residual = 0, No Iterations 0
diagonal:  Solving for f18.air, Initial residual = 0, Final residual = 0, No Iterations 0
diagonal:  Solving for f19.air, Initial residual = 0, Final residual = 0, No Iterations 0
diagonal:  Solving for f20.air, Initial residual = 0, Final residual = 0, No Iterations 0
diagonal:  Solving for f21.air, Initial residual = 0, Final residual = 0, No Iterations 0
diagonal:  Solving for f22.air, Initial residual = 0, Final residual = 0, No Iterations 0
diagonal:  Solving for f23.air, Initial residual = 0, Final residual = 0, No Iterations 0
diagonal:  Solving for f24.air, Initial residual = 0, Final residual = 0, No Iterations 0
diagonal:  Solving for f25.air, Initial residual = 0, Final residual = 0, No Iterations 0
diagonal:  Solving for f26.air, Initial residual = 0, Final residual = 0, No Iterations 0
diagonal:  Solving for f27.air, Initial residual = 0, Final residual = 0, No Iterations 0
diagonal:  Solving for f28.air, Initial residual = 0, Final residual = 0, No Iterations 0
bubbles sizeGroup phase fraction first, last = 0 0
air sizeGroups-sum volume fraction, min, max = 1.00015 1.00015 1.00015
air Sauter mean diameter, min, max = 1.80852 1.80852 1.80852
Constructing momentum equations
diagonal:  Solving for p_rgh, Initial residual = 0, Final residual = 0, No Iterations 0
PIMPLE: Iteration 2
MULES: Solving for alpha.air
air fraction, min, max = 0.066772 0.066772 0.066772
populationBalance bubbles: Iteration 1
diagonal:  Solving for f0.air, Initial residual = 0, Final residual = 0, No Iterations 0
diagonal:  Solving for f1.air, Initial residual = 0, Final residual = 0, No Iterations 0
diagonal:  Solving for f2.air, Initial residual = 0, Final residual = 0, No Iterations 0
diagonal:  Solving for f3.air, Initial residual = 0, Final residual = 0, No Iterations 0
diagonal:  Solving for f4.air, Initial residual = 0, Final residual = 0, No Iterations 0
diagonal:  Solving for f5.air, Initial residual = 0, Final residual = 0, No Iterations 0
diagonal:  Solving for f6.air, Initial residual = 0, Final residual = 0, No Iterations 0
diagonal:  Solving for f7.air, Initial residual = 0, Final residual = 0, No Iterations 0
diagonal:  Solving for f8.air, Initial residual = 0, Final residual = 0, No Iterations 0
diagonal:  Solving for f9.air, Initial residual = 0, Final residual = 0, No Iterations 0
diagonal:  Solving for f10.air, Initial residual = 0, Final residual = 0, No Iterations 0
diagonal:  Solving for f11.air, Initial residual = 0, Final residual = 0, No Iterations 0
diagonal:  Solving for f12.air, Initial residual = 0, Final residual = 0, No Iterations 0
diagonal:  Solving for f13.air, Initial residual = 0, Final residual = 0, No Iterations 0
diagonal:  Solving for f14.air, Initial residual = 0, Final residual = 0, No Iterations 0
diagonal:  Solving for f15.air, Initial residual = 0, Final residual = 0, No Iterations 0
diagonal:  Solving for f16.air, Initial residual = 0, Final residual = 0, No Iterations 0
diagonal:  Solving for f17.air, Initial residual = 0, Final residual = 0, No Iterations 0
diagonal:  Solving for f18.air, Initial residual = 0, Final residual = 0, No Iterations 0
diagonal:  Solving for f19.air, Initial residual = 0, Final residual = 0, No Iterations 0
diagonal:  Solving for f20.air, Initial residual = 0, Final residual = 0, No Iterations 0
diagonal:  Solving for f21.air, Initial residual = 0, Final residual = 0, No Iterations 0
diagonal:  Solving for f22.air, Initial residual = 0, Final residual = 0, No Iterations 0
diagonal:  Solving for f23.air, Initial residual = 0, Final residual = 0, No Iterations 0
diagonal:  Solving for f24.air, Initial residual = 0, Final residual = 0, No Iterations 0
diagonal:  Solving for f25.air, Initial residual = 0, Final residual = 0, No Iterations 0
diagonal:  Solving for f26.air, Initial residual = 0, Final residual = 0, No Iterations 0
diagonal:  Solving for f27.air, Initial residual = 0, Final residual = 0, No Iterations 0
diagonal:  Solving for f28.air, Initial residual = 0, Final residual = 0, No Iterations 0
bubbles sizeGroup phase fraction first, last = 0 0
air sizeGroups-sum volume fraction, min, max = 1.0001 1.0001 1.0001
air Sauter mean diameter, min, max = 1.80866 1.80866 1.80866
Constructing momentum equations
diagonal:  Solving for p_rgh, Initial residual = 0, Final residual = 0, No Iterations 0
ExecutionTime = 0.217169 s  ClockTime = 0 s

Courant Number mean: 0 max: 0
Time = 0.02s

PIMPLE: Iteration 1
MULES: Solving for alpha.air
air fraction, min, max = 0.0669906 0.0669906 0.0669906
populationBalance bubbles: Iteration 1
diagonal:  Solving for f0.air, Initial residual = 0, Final residual = 0, No Iterations 0
diagonal:  Solving for f1.air, Initial residual = 0, Final residual = 0, No Iterations 0
diagonal:  Solving for f2.air, Initial residual = 0, Final residual = 0, No Iterations 0
diagonal:  Solving for f3.air, Initial residual = 0, Final residual = 0, No Iterations 0
diagonal:  Solving for f4.air, Initial residual = 0, Final residual = 0, No Iterations 0
diagonal:  Solving for f5.air, Initial residual = 0, Final residual = 0, No Iterations 0
diagonal:  Solving for f6.air, Initial residual = 0, Final residual = 0, No Iterations 0
diagonal:  Solving for f7.air, Initial residual = 0, Final residual = 0, No Iterations 0
diagonal:  Solving for f8.air, Initial residual = 0, Final residual = 0, No Iterations 0
diagonal:  Solving for f9.air, Initial residual = 0, Final residual = 0, No Iterations 0
diagonal:  Solving for f10.air, Initial residual = 0, Final residual = 0, No Iterations 0
diagonal:  Solving for f11.air, Initial residual = 0, Final residual = 0, No Iterations 0
diagonal:  Solving for f12.air, Initial residual = 0, Final residual = 0, No Iterations 0
diagonal:  Solving for f13.air, Initial residual = 0, Final residual = 0, No Iterations 0
diagonal:  Solving for f14.air, Initial residual = 0, Final residual = 0, No Iterations 0
diagonal:  Solving for f15.air, Initial residual = 0, Final residual = 0, No Iterations 0
diagonal:  Solving for f16.air, Initial residual = 0, Final residual = 0, No Iterations 0
diagonal:  Solving for f17.air, Initial residual = 0, Final residual = 0, No Iterations 0
diagonal:  Solving for f18.air, Initial residual = 0, Final residual = 0, No Iterations 0
diagonal:  Solving for f19.air, Initial residual = 0, Final residual = 0, No Iterations 0
diagonal:  Solving for f20.air, Initial residual = 0, Final residual = 0, No Iterations 0
diagonal:  Solving for f21.air, Initial residual = 0, Final residual = 0, No Iterations 0
diagonal:  Solving for f22.air, Initial residual = 0, Final residual = 0, No Iterations 0
diagonal:  Solving for f23.air, Initial residual = 0, Final residual = 0, No Iterations 0
diagonal:  Solving for f24.air, Initial residual = 0, Final residual = 0, No Iterations 0
diagonal:  Solving for f25.air, Initial residual = 0, Final residual = 0, No Iterations 0
diagonal:  Solving for f26.air, Initial residual = 0, Final residual = 0, No Iterations 0
diagonal:  Solving for f27.air, Initial residual = 0, Final residual = 0, No Iterations 0
diagonal:  Solving for f28.air, Initial residual = 0, Final residual = 0, No Iterations 0
bubbles sizeGroup phase fraction first, last = 0 0
air sizeGroups-sum volume fraction, min, max = 1.00015 1.00015 1.00015
air Sauter mean diameter, min, max = 1.81051 1.81051 1.81051
Constructing momentum equations
diagonal:  Solving for p_rgh, Initial residual = 0, Final residual = 0, No Iterations 0
PIMPLE: Iteration 2
MULES: Solving for alpha.air
air fraction, min, max = 0.0669906 0.0669906 0.0669906
populationBalance bubbles: Iteration 1
diagonal:  Solving for f0.air, Initial residual = 0, Final residual = 0, No Iterations 0
diagonal:  Solving for f1.air, Initial residual = 0, Final residual = 0, No Iterations 0
diagonal:  Solving for f2.air, Initial residual = 0, Final residual = 0, No Iterations 0
diagonal:  Solving for f3.air, Initial residual = 0, Final residual = 0, No Iterations 0
diagonal:  Solving for f4.air, Initial residual = 0, Final residual = 0, No Iterations 0
diagonal:  Solving for f5.air, Initial residual = 0, Final residual = 0, No Iterations 0
diagonal:  Solving for f6.air, Initial residual = 0, Final residual = 0, No Iterations 0
diagonal:  Solving for f7.air, Initial residual = 0, Final residual = 0, No Iterations 0
diagonal:  Solving for f8.air, Initial residual = 0, Final residual = 0, No Iterations 0
diagonal:  Solving for f9.air, Initial residual = 0, Final residual = 0, No Iterations 0
diagonal:  Solving for f10.air, Initial residual = 0, Final residual = 0, No Iterations 0
diagonal:  Solving for f11.air, Initial residual = 0, Final residual = 0, No Iterations 0
diagonal:  Solving for f12.air, Initial residual = 0, Final residual = 0, No Iterations 0
diagonal:  Solving for f13.air, Initial residual = 0, Final residual = 0, No Iterations 0
diagonal:  Solving for f14.air, Initial residual = 0, Final residual = 0, No Iterations 0
diagonal:  Solving for f15.air, Initial residual = 0, Final residual = 0, No Iterations 0
diagonal:  Solving for f16.air, Initial residual = 0, Final residual = 0, No Iterations 0
diagonal:  Solving for f17.air, Initial residual = 0, Final residual = 0, No Iterations 0
diagonal:  Solving for f18.air, Initial residual = 0, Final residual = 0, No Iterations 0
diagonal:  Solving for f19.air, Initial residual = 0, Final residual = 0, No Iterations 0
diagonal:  Solving for f20.air, Initial residual = 0, Final residual = 0, No Iterations 0
diagonal:  Solving for f21.air, Initial residual = 0, Final residual = 0, No Iterations 0
diagonal:  Solving for f22.air, Initial residual = 0, Final residual = 0, No Iterations 0
diagonal:  Solving for f23.air, Initial residual = 0, Final residual = 0, No Iterations 0
diagonal:  Solving for f24.air, Initial residual = 0, Final residual = 0, No Iterations 0
diagonal:  Solving for f25.air, Initial residual = 0, Final residual = 0, No Iterations 0
diagonal:  Solving for f26.air, Initial residual = 0, Final residual = 0, No Iterations 0
diagonal:  Solving for f27.air, Initial residual = 0, Final residual = 0, No Iterations 0
diagonal:  Solving for f28.air, Initial residual = 0, Final residual = 0, No Iterations 0
bubbles sizeGroup phase fraction first, last = 0 0
air sizeGroups-sum volume fraction, min, max = 1.0001 1.0001 1.0001
air Sauter mean diameter, min, max = 1.81065 1.81065 1.81065
Constructing momentum equations
diagonal:  Solving for p_rgh, Initial residual = 0, Final residual = 0, No Iterations 0
ExecutionTime = 0.225193 s  ClockTime = 0 s

Courant Number mean: 0 max: 0
Time = 0.03s

PIMPLE: Iteration 1
MULES: Solving for alpha.air
air fraction, min, max = 0.0672093 0.0672093 0.0672093
populationBalance bubbles: Iteration 1
diagonal:  Solving for f0.air, Initial residual = 0, Final residual = 0, No Iterations 0
diagonal:  Solving for f1.air, Initial residual = 0, Final residual = 0, No Iterations 0
diagonal:  Solving for f2.air, Initial residual = 0, Final residual = 0, No Iterations 0
diagonal:  Solving for f3.air, Initial residual = 0, Final residual = 0, No Iterations 0
diagonal:  Solving for f4.air, Initial residual = 0, Final residual = 0, No Iterations 0
diagonal:  Solving for f5.air, Initial residual = 0, Final residual = 0, No Iterations 0
diagonal:  Solving for f6.air, Initial residual = 0, Final residual = 0, No Iterations 0
diagonal:  Solving for f7.air, Initial residual = 0, Final residual = 0, No Iterations 0
diagonal:  Solving for f8.air, Initial residual = 0, Final residual = 0, No Iterations 0
diagonal:  Solving for f9.air, Initial residual = 0, Final residual = 0, No Iterations 0
diagonal:  Solving for f10.air, Initial residual = 0, Final residual = 0, No Iterations 0
diagonal:  Solving for f11.air, Initial residual = 0, Final residual = 0, No Iterations 0
diagonal:  Solving for f12.air, Initial residual = 0, Final residual = 0, No Iterations 0
diagonal:  Solving for f13.air, Initial residual = 0, Final residual = 0, No Iterations 0
diagonal:  Solving for f14.air, Initial residual = 0, Final residual = 0, No Iterations 0
diagonal:  Solving for f15.air, Initial residual = 0, Final residual = 0, No Iterations 0
diagonal:  Solving for f16.air, Initial residual = 0, Final residual = 0, No Iterations 0
diagonal:  Solving for f17.air, Initial residual = 0, Final residual = 0, No Iterations 0
diagonal:  Solving for f18.air, Initial residual = 0, Final residual = 0, No Iterations 0
diagonal:  Solving for f19.air, Initial residual = 0, Final residual = 0, No Iterations 0
diagonal:  Solving for f20.air, Initial residual = 0, Final residual = 0, No Iterations 0
diagonal:  Solving for f21.air, Initial residual = 0, Final residual = 0, No Iterations 0
diagonal:  Solving for f22.air, Initial residual = 0, Final residual = 0, No Iterations 0
diagonal:  Solving for f23.air, Initial residual = 0, Final residual = 0, No Iterations 0
diagonal:  Solving for f24.air, Initial residual = 0, Final residual = 0, No Iterations 0
diagonal:  Solving for f25.air, Initial residual = 0, Final residual = 0, No Iterations 0
diagonal:  Solving for f26.air, Initial residual = 0, Final residual = 0, No Iterations 0
diagonal:  Solving for f27.air, Initial residual = 0, Final residual = 0, No Iterations 0
diagonal:  Solving for f28.air, Initial residual = 0, Final residual = 0, No Iterations 0
bubbles sizeGroup phase fraction first, last = 0 0
air sizeGroups-sum volume fraction, min, max = 1.00016 1.00016 1.00016
air Sauter mean diameter, min, max = 1.8125 1.8125 1.8125
Constructing momentum equations
diagonal:  Solving for p_rgh, Initial residual = 0, Final residual = 0, No Iterations 0
PIMPLE: Iteration 2
MULES: Solving for alpha.air
air fraction, min, max = 0.0672093 0.0672093 0.0672093
populationBalance bubbles: Iteration 1
diagonal:  Solving for f0.air, Initial residual = 0, Final residual = 0, No Iterations 0
diagonal:  Solving for f1.air, Initial residual = 0, Final residual = 0, No Iterations 0
diagonal:  Solving for f2.air, Initial residual = 0, Final residual = 0, No Iterations 0
diagonal:  Solving for f3.air, Initial residual = 0, Final residual = 0, No Iterations 0
diagonal:  Solving for f4.air, Initial residual = 0, Final residual = 0, No Iterations 0
diagonal:  Solving for f5.air, Initial residual = 0, Final residual = 0, No Iterations 0
diagonal:  Solving for f6.air, Initial residual = 0, Final residual = 0, No Iterations 0
diagonal:  Solving for f7.air, Initial residual = 0, Final residual = 0, No Iterations 0
diagonal:  Solving for f8.air, Initial residual = 0, Final residual = 0, No Iterations 0
diagonal:  Solving for f9.air, Initial residual = 0, Final residual = 0, No Iterations 0
diagonal:  Solving for f10.air, Initial residual = 0, Final residual = 0, No Iterations 0
diagonal:  Solving for f11.air, Initial residual = 0, Final residual = 0, No Iterations 0
diagonal:  Solving for f12.air, Initial residual = 0, Final residual = 0, No Iterations 0
diagonal:  Solving for f13.air, Initial residual = 0, Final residual = 0, No Iterations 0
diagonal:  Solving for f14.air, Initial residual = 0, Final residual = 0, No Iterations 0
diagonal:  Solving for f15.air, Initial residual = 0, Final residual = 0, No Iterations 0
diagonal:  Solving for f16.air, Initial residual = 0, Final residual = 0, No Iterations 0
diagonal:  Solving for f17.air, Initial residual = 0, Final residual = 0, No Iterations 0
diagonal:  Solving for f18.air, Initial residual = 0, Final residual = 0, No Iterations 0
diagonal:  Solving for f19.air, Initial residual = 0, Final residual = 0, No Iterations 0
diagonal:  Solving for f20.air, Initial residual = 0, Final residual = 0, No Iterations 0
diagonal:  Solving for f21.air, Initial residual = 0, Final residual = 0, No Iterations 0
diagonal:  Solving for f22.air, Initial residual = 0, Final residual = 0, No Iterations 0
diagonal:  Solving for f23.air, Initial residual = 0, Final residual = 0, No Iterations 0
diagonal:  Solving for f24.air, Initial residual = 0, Final residual = 0, No Iterations 0
diagonal:  Solving for f25.air, Initial residual = 0, Final residual = 0, No Iterations 0
diagonal:  Solving for f26.air, Initial residual = 0, Final residual = 0, No Iterations 0
diagonal:  Solving for f27.air, Initial residual = 0, Final residual = 0, No Iterations 0
diagonal:  Solving for f28.air, Initial residual = 0, Final residual = 0, No Iterations 0
bubbles sizeGroup phase fraction first, last = 0 0
air sizeGroups-sum volume fraction, min, max = 1.00011 1.00011 1.00011
air Sauter mean diameter, min, max = 1.81264 1.81264 1.81264
Constructing momentum equations
diagonal:  Solving for p_rgh, Initial residual = 0, Final residual = 0, No Iterations 0
ExecutionTime = 0.23828 s  ClockTime = 0 s

Courant Number mean: 0 max: 0
Time = 0.04s

PIMPLE: Iteration 1
MULES: Solving for alpha.air
air fraction, min, max = 0.0674279 0.0674279 0.0674279
populationBalance bubbles: Iteration 1
diagonal:  Solving for f0.air, Initial residual = 0, Final residual = 0, No Iterations 0
diagonal:  Solving for f1.air, Initial residual = 0, Final residual = 0, No Iterations 0
diagonal:  Solving for f2.air, Initial residual = 0, Final residual = 0, No Iterations 0
diagonal:  Solving for f3.air, Initial residual = 0, Final residual = 0, No Iterations 0
diagonal:  Solving for f4.air, Initial residual = 0, Final residual = 0, No Iterations 0
diagonal:  Solving for f5.air, Initial residual = 0, Final residual = 0, No Iterations 0
diagonal:  Solving for f6.air, Initial residual = 0, Final residual = 0, No Iterations 0
diagonal:  Solving for f7.air, Initial residual = 0, Final residual = 0, No Iterations 0
diagonal:  Solving for f8.air, Initial residual = 0, Final residual = 0, No Iterations 0
diagonal:  Solving for f9.air, Initial residual = 0, Final residual = 0, No Iterations 0
diagonal:  Solving for f10.air, Initial residual = 0, Final residual = 0, No Iterations 0
diagonal:  Solving for f11.air, Initial residual = 0, Final residual = 0, No Iterations 0
diagonal:  Solving for f12.air, Initial residual = 0, Final residual = 0, No Iterations 0
diagonal:  Solving for f13.air, Initial residual = 0, Final residual = 0, No Iterations 0
diagonal:  Solving for f14.air, Initial residual = 0, Final residual = 0, No Iterations 0
diagonal:  Solving for f15.air, Initial residual = 0, Final residual = 0, No Iterations 0
diagonal:  Solving for f16.air, Initial residual = 0, Final residual = 0, No Iterations 0
diagonal:  Solving for f17.air, Initial residual = 0, Final residual = 0, No Iterations 0
diagonal:  Solving for f18.air, Initial residual = 0, Final residual = 0, No Iterations 0
diagonal:  Solving for f19.air, Initial residual = 0, Final residual = 0, No Iterations 0
diagonal:  Solving for f20.air, Initial residual = 0, Final residual = 0, No Iterations 0
diagonal:  Solving for f21.air, Initial residual = 0, Final residual = 0, No Iterations 0
diagonal:  Solving for f22.air, Initial residual = 0, Final residual = 0, No Iterations 0
diagonal:  Solving for f23.air, Initial residual = 0, Final residual = 0, No Iterations 0
diagonal:  Solving for f24.air, Initial residual = 0, Final residual = 0, No Iterations 0
diagonal:  Solving for f25.air, Initial residual = 0, Final residual = 0, No Iterations 0
diagonal:  Solving for f26.air, Initial residual = 0, Final residual = 0, No Iterations 0
diagonal:  Solving for f27.air, Initial residual = 0, Final residual = 0, No Iterations 0
diagonal:  Solving for f28.air, Initial residual = 0, Final residual = 0, No Iterations 0
bubbles sizeGroup phase fraction first, last = 0 0
air sizeGroups-sum volume fraction, min, max = 1.00016 1.00016 1.00016
air Sauter mean diameter, min, max = 1.81449 1.81449 1.81449
Constructing momentum equations
diagonal:  Solving for p_rgh, Initial residual = 0, Final residual = 0, No Iterations 0
PIMPLE: Iteration 2
MULES: Solving for alpha.air
air fraction, min, max = 0.067428 0.067428 0.067428
populationBalance bubbles: Iteration 1
diagonal:  Solving for f0.air, Initial residual = 0, Final residual = 0, No Iterations 0
diagonal:  Solving for f1.air, Initial residual = 0, Final residual = 0, No Iterations 0
diagonal:  Solving for f2.air, Initial residual = 0, Final residual = 0, No Iterations 0
diagonal:  Solving for f3.air, Initial residual = 0, Final residual = 0, No Iterations 0
diagonal:  Solving for f4.air, Initial residual = 0, Final residual = 0, No Iterations 0
diagonal:  Solving for f5.air, Initial residual = 0, Final residual = 0, No Iterations 0
diagonal:  Solving for f6.air, Initial residual = 0, Final residual = 0, No Iterations 0
diagonal:  Solving for f7.air, Initial residual = 0, Final residual = 0, No Iterations 0
diagonal:  Solving for f8.air, Initial residual = 0, Final residual = 0, No Iterations 0
diagonal:  Solving for f9.air, Initial residual = 0, Final residual = 0, No Iterations 0
diagonal:  Solving for f10.air, Initial residual = 0, Final residual = 0, No Iterations 0
diagonal:  Solving for f11.air, Initial residual = 0, Final residual = 0, No Iterations 0
diagonal:  Solving for f12.air, Initial residual = 0, Final residual = 0, No Iterations 0
diagonal:  Solving for f13.air, Initial residual = 0, Final residual = 0, No Iterations 0
diagonal:  Solving for f14.air, Initial residual = 0, Final residual = 0, No Iterations 0
diagonal:  Solving for f15.air, Initial residual = 0, Final residual = 0, No Iterations 0
diagonal:  Solving for f16.air, Initial residual = 0, Final residual = 0, No Iterations 0
diagonal:  Solving for f17.air, Initial residual = 0, Final residual = 0, No Iterations 0
diagonal:  Solving for f18.air, Initial residual = 0, Final residual = 0, No Iterations 0
diagonal:  Solving for f19.air, Initial residual = 0, Final residual = 0, No Iterations 0
diagonal:  Solving for f20.air, Initial residual = 0, Final residual = 0, No Iterations 0
diagonal:  Solving for f21.air, Initial residual = 0, Final residual = 0, No Iterations 0
diagonal:  Solving for f22.air, Initial residual = 0, Final residual = 0, No Iterations 0
diagonal:  Solving for f23.air, Initial residual = 0, Final residual = 0, No Iterations 0
diagonal:  Solving for f24.air, Initial residual = 0, Final residual = 0, No Iterations 0
diagonal:  Solving for f25.air, Initial residual = 0, Final residual = 0, No Iterations 0
diagonal:  Solving for f26.air, Initial residual = 0, Final residual = 0, No Iterations 0
diagonal:  Solving for f27.air, Initial residual = 0, Final residual = 0, No Iterations 0
diagonal:  Solving for f28.air, Initial residual = 0, Final residual = 0, No Iterations 0
bubbles sizeGroup phase fraction first, last = 0 0
air sizeGroups-sum volume fraction, min, max = 1.00011 1.00011 1.00011
air Sauter mean diameter, min, max = 1.81462 1.81462 1.81462
Constructing momentum equations
diagonal:  Solving for p_rgh, Initial residual = 0, Final residual = 0, No Iterations 0
ExecutionTime = 0.24755 s  ClockTime = 0 s

Courant Number mean: 0 max: 0
Time = 0.05s

PIMPLE: Iteration 1
MULES: Solving for alpha.air
air fraction, min, max = 0.0676466 0.0676466 0.0676466
populationBalance bubbles: Iteration 1
diagonal:  Solving for f0.air, Initial residual = 0, Final residual = 0, No Iterations 0
diagonal:  Solving for f1.air, Initial residual = 0, Final residual = 0, No Iterations 0
diagonal:  Solving for f2.air, Initial residual = 0, Final residual = 0, No Iterations 0
diagonal:  Solving for f3.air, Initial residual = 0, Final residual = 0, No Iterations 0
diagonal:  Solving for f4.air, Initial residual = 0, Final residual = 0, No Iterations 0
diagonal:  Solving for f5.air, Initial residual = 0, Final residual = 0, No Iterations 0
diagonal:  Solving for f6.air, Initial residual = 0, Final residual = 0, No Iterations 0
diagonal:  Solving for f7.air, Initial residual = 0, Final residual = 0, No Iterations 0
diagonal:  Solving for f8.air, Initial residual = 0, Final residual = 0, No Iterations 0
diagonal:  Solving for f9.air, Initial residual = 0, Final residual = 0, No Iterations 0
diagonal:  Solving for f10.air, Initial residual = 0, Final residual = 0, No Iterations 0
diagonal:  Solving for f11.air, Initial residual = 0, Final residual = 0, No Iterations 0
diagonal:  Solving for f12.air, Initial residual = 0, Final residual = 0, No Iterations 0
diagonal:  Solving for f13.air, Initial residual = 0, Final residual = 0, No Iterations 0
diagonal:  Solving for f14.air, Initial residual = 0, Final residual = 0, No Iterations 0
diagonal:  Solving for f15.air, Initial residual = 0, Final residual = 0, No Iterations 0
diagonal:  Solving for f16.air, Initial residual = 0, Final residual = 0, No Iterations 0
diagonal:  Solving for f17.air, Initial residual = 0, Final residual = 0, No Iterations 0
diagonal:  Solving for f18.air, Initial residual = 0, Final residual = 0, No Iterations 0
diagonal:  Solving for f19.air, Initial residual = 0, Final residual = 0, No Iterations 0
diagonal:  Solving for f20.air, Initial residual = 0, Final residual = 0, No Iterations 0
diagonal:  Solving for f21.air, Initial residual = 0, Final residual = 0, No Iterations 0
diagonal:  Solving for f22.air, Initial residual = 0, Final residual = 0, No Iterations 0
diagonal:  Solving for f23.air, Initial residual = 0, Final residual = 0, No Iterations 0
diagonal:  Solving for f24.air, Initial residual = 0, Final residual = 0, No Iterations 0
diagonal:  Solving for f25.air, Initial residual = 0, Final residual = 0, No Iterations 0
diagonal:  Solving for f26.air, Initial residual = 0, Final residual = 0, No Iterations 0
diagonal:  Solving for f27.air, Initial residual = 0, Final residual = 0, No Iterations 0
diagonal:  Solving for f28.air, Initial residual = 0, Final residual = 0, No Iterations 0
bubbles sizeGroup phase fraction first, last = 0 0
air sizeGroups-sum volume fraction, min, max = 1.00016 1.00016 1.00016
air Sauter mean diameter, min, max = 1.81647 1.81647 1.81647
Constructing momentum equations
diagonal:  Solving for p_rgh, Initial residual = 0, Final residual = 0, No Iterations 0
PIMPLE: Iteration 2
MULES: Solving for alpha.air
air fraction, min, max = 0.0676466 0.0676466 0.0676466
populationBalance bubbles: Iteration 1
diagonal:  Solving for f0.air, Initial residual = 0, Final residual = 0, No Iterations 0
diagonal:  Solving for f1.air, Initial residual = 0, Final residual = 0, No Iterations 0
diagonal:  Solving for f2.air, Initial residual = 0, Final residual = 0, No Iterations 0
diagonal:  Solving for f3.air, Initial residual = 0, Final residual = 0, No Iterations 0
diagonal:  Solving for f4.air, Initial residual = 0, Final residual = 0, No Iterations 0
diagonal:  Solving for f5.air, Initial residual = 0, Final residual = 0, No Iterations 0
diagonal:  Solving for f6.air, Initial residual = 0, Final residual = 0, No Iterations 0
diagonal:  Solving for f7.air, Initial residual = 0, Final residual = 0, No Iterations 0
diagonal:  Solving for f8.air, Initial residual = 0, Final residual = 0, No Iterations 0
diagonal:  Solving for f9.air, Initial residual = 0, Final residual = 0, No Iterations 0
diagonal:  Solving for f10.air, Initial residual = 0, Final residual = 0, No Iterations 0
diagonal:  Solving for f11.air, Initial residual = 0, Final residual = 0, No Iterations 0
diagonal:  Solving for f12.air, Initial residual = 0, Final residual = 0, No Iterations 0
diagonal:  Solving for f13.air, Initial residual = 0, Final residual = 0, No Iterations 0
diagonal:  Solving for f14.air, Initial residual = 0, Final residual = 0, No Iterations 0
diagonal:  Solving for f15.air, Initial residual = 0, Final residual = 0, No Iterations 0
diagonal:  Solving for f16.air, Initial residual = 0, Final residual = 0, No Iterations 0
diagonal:  Solving for f17.air, Initial residual = 0, Final residual = 0, No Iterations 0
diagonal:  Solving for f18.air, Initial residual = 0, Final residual = 0, No Iterations 0
diagonal:  Solving for f19.air, Initial residual = 0, Final residual = 0, No Iterations 0
diagonal:  Solving for f20.air, Initial residual = 0, Final residual = 0, No Iterations 0
diagonal:  Solving for f21.air, Initial residual = 0, Final residual = 0, No Iterations 0
diagonal:  Solving for f22.air, Initial residual = 0, Final residual = 0, No Iterations 0
diagonal:  Solving for f23.air, Initial residual = 0, Final residual = 0, No Iterations 0
diagonal:  Solving for f24.air, Initial residual = 0, Final residual = 0, No Iterations 0
diagonal:  Solving for f25.air, Initial residual = 0, Final residual = 0, No Iterations 0
diagonal:  Solving for f26.air, Initial residual = 0, Final residual = 0, No Iterations 0
diagonal:  Solving for f27.air, Initial residual = 0, Final residual = 0, No Iterations 0
diagonal:  Solving for f28.air, Initial residual = 0, Final residual = 0, No Iterations 0
bubbles sizeGroup phase fraction first, last = 0 0
air sizeGroups-sum volume fraction, min, max = 1.00011 1.00011 1.00011
air Sauter mean diameter, min, max = 1.8166 1.8166 1.8166
Constructing momentum equations
diagonal:  Solving for p_rgh, Initial residual = 0, Final residual = 0, No Iterations 0
ExecutionTime = 0.255233 s  ClockTime = 0 s

Courant Number mean: 0 max: 0
Time = 0.06s

PIMPLE: Iteration 1
MULES: Solving for alpha.air
air fraction, min, max = 0.0678653 0.0678653 0.0678653
populationBalance bubbles: Iteration 1
diagonal:  Solving for f0.air, Initial residual = 0, Final residual = 0, No Iterations 0
diagonal:  Solving for f1.air, Initial residual = 0, Final residual = 0, No Iterations 0
diagonal:  Solving for f2.air, Initial residual = 0, Final residual = 0, No Iterations 0
diagonal:  Solving for f3.air, Initial residual = 0, Final residual = 0, No Iterations 0
diagonal:  Solving for f4.air, Initial residual = 0, Final residual = 0, No Iterations 0
diagonal:  Solving for f5.air, Initial residual = 0, Final residual = 0, No Iterations 0
diagonal:  Solving for f6.air, Initial residual = 0, Final residual = 0, No Iterations 0
diagonal:  Solving for f7.air, Initial residual = 0, Final residual = 0, No Iterations 0
diagonal:  Solving for f8.air, Initial residual = 0, Final residual = 0, No Iterations 0
diagonal:  Solving for f9.air, Initial residual = 0, Final residual = 0, No Iterations 0
diagonal:  Solving for f10.air, Initial residual = 0, Final residual = 0, No Iterations 0
diagonal:  Solving for f11.air, Initial residual = 0, Final residual = 0, No Iterations 0
diagonal:  Solving for f12.air, Initial residual = 0, Final residual = 0, No Iterations 0
diagonal:  Solving for f13.air, Initial residual = 0, Final residual = 0, No Iterations 0
diagonal:  Solving for f14.air, Initial residual = 0, Final residual = 0, No Iterations 0
diagonal:  Solving for f15.air, Initial residual = 0, Final residual = 0, No Iterations 0
diagonal:  Solving for f16.air, Initial residual = 0, Final residual = 0, No Iterations 0
diagonal:  Solving for f17.air, Initial residual = 0, Final residual = 0, No Iterations 0
diagonal:  Solving for f18.air, Initial residual = 0, Final residual = 0, No Iterations 0
diagonal:  Solving for f19.air, Initial residual = 0, Final residual = 0, No Iterations 0
diagonal:  Solving for f20.air, Initial residual = 0, Final residual = 0, No Iterations 0
diagonal:  Solving for f21.air, Initial residual = 0, Final residual = 0, No Iterations 0
diagonal:  Solving for f22.air, Initial residual = 0, Final residual = 0, No Iterations 0
diagonal:  Solving for f23.air, Initial residual = 0, Final residual = 0, No Iterations 0
diagonal:  Solving for f24.air, Initial residual = 0, Final residual = 0, No Iterations 0
diagonal:  Solving for f25.air, Initial residual = 0, Final residual = 0, No Iterations 0
diagonal:  Solving for f26.air, Initial residual = 0, Final residual = 0, No Iterations 0
diagonal:  Solving for f27.air, Initial residual = 0, Final residual = 0, No Iterations 0
diagonal:  Solving for f28.air, Initial residual = 0, Final residual = 0, No Iterations 0
bubbles sizeGroup phase fraction first, last = 0 0
air sizeGroups-sum volume fraction, min, max = 1.00016 1.00016 1.00016
air Sauter mean diameter, min, max = 1.81844 1.81844 1.81844
Constructing momentum equations
diagonal:  Solving for p_rgh, Initial residual = 0, Final residual = 0, No Iterations 0
PIMPLE: Iteration 2
MULES: Solving for alpha.air
air fraction, min, max = 0.0678653 0.0678653 0.0678653
populationBalance bubbles: Iteration 1
diagonal:  Solving for f0.air, Initial residual = 0, Final residual = 0, No Iterations 0
diagonal:  Solving for f1.air, Initial residual = 0, Final residual = 0, No Iterations 0
diagonal:  Solving for f2.air, Initial residual = 0, Final residual = 0, No Iterations 0
diagonal:  Solving for f3.air, Initial residual = 0, Final residual = 0, No Iterations 0
diagonal:  Solving for f4.air, Initial residual = 0, Final residual = 0, No Iterations 0
diagonal:  Solving for f5.air, Initial residual = 0, Final residual = 0, No Iterations 0
diagonal:  Solving for f6.air, Initial residual = 0, Final residual = 0, No Iterations 0
diagonal:  Solving for f7.air, Initial residual = 0, Final residual = 0, No Iterations 0
diagonal:  Solving for f8.air, Initial residual = 0, Final residual = 0, No Iterations 0
diagonal:  Solving for f9.air, Initial residual = 0, Final residual = 0, No Iterations 0
diagonal:  Solving for f10.air, Initial residual = 0, Final residual = 0, No Iterations 0
diagonal:  Solving for f11.air, Initial residual = 0, Final residual = 0, No Iterations 0
diagonal:  Solving for f12.air, Initial residual = 0, Final residual = 0, No Iterations 0
diagonal:  Solving for f13.air, Initial residual = 0, Final residual = 0, No Iterations 0
diagonal:  Solving for f14.air, Initial residual = 0, Final residual = 0, No Iterations 0
diagonal:  Solving for f15.air, Initial residual = 0, Final residual = 0, No Iterations 0
diagonal:  Solving for f16.air, Initial residual = 0, Final residual = 0, No Iterations 0
diagonal:  Solving for f17.air, Initial residual = 0, Final residual = 0, No Iterations 0
diagonal:  Solving for f18.air, Initial residual = 0, Final residual = 0, No Iterations 0
diagonal:  Solving for f19.air, Initial residual = 0, Final residual = 0, No Iterations 0
diagonal:  Solving for f20.air, Initial residual = 0, Final residual = 0, No Iterations 0
diagonal:  Solving for f21.air, Initial residual = 0, Final residual = 0, No Iterations 0
diagonal:  Solving for f22.air, Initial residual = 0, Final residual = 0, No Iterations 0
diagonal:  Solving for f23.air, Initial residual = 0, Final residual = 0, No Iterations 0
diagonal:  Solving for f24.air, Initial residual = 0, Final residual = 0, No Iterations 0
diagonal:  Solving for f25.air, Initial residual = 0, Final residual = 0, No Iterations 0
diagonal:  Solving for f26.air, Initial residual = 0, Final residual = 0, No Iterations 0
diagonal:  Solving for f27.air, Initial residual = 0, Final residual = 0, No Iterations 0
diagonal:  Solving for f28.air, Initial residual = 0, Final residual = 0, No Iterations 0
bubbles sizeGroup phase fraction first, last = 0 0
air sizeGroups-sum volume fraction, min, max = 1.00011 1.00011 1.00011
air Sauter mean diameter, min, max = 1.81858 1.81858 1.81858
Constructing momentum equations
diagonal:  Solving for p_rgh, Initial residual = 0, Final residual = 0, No Iterations 0
ExecutionTime = 0.265245 s  ClockTime = 0 s

Courant Number mean: 0 max: 0
Time = 0.07s

PIMPLE: Iteration 1
MULES: Solving for alpha.air
air fraction, min, max = 0.0680839 0.0680839 0.0680839
populationBalance bubbles: Iteration 1
diagonal:  Solving for f0.air, Initial residual = 0, Final residual = 0, No Iterations 0
diagonal:  Solving for f1.air, Initial residual = 0, Final residual = 0, No Iterations 0
diagonal:  Solving for f2.air, Initial residual = 0, Final residual = 0, No Iterations 0
diagonal:  Solving for f3.air, Initial residual = 0, Final residual = 0, No Iterations 0
diagonal:  Solving for f4.air, Initial residual = 0, Final residual = 0, No Iterations 0
diagonal:  Solving for f5.air, Initial residual = 0, Final residual = 0, No Iterations 0
diagonal:  Solving for f6.air, Initial residual = 0, Final residual = 0, No Iterations 0
diagonal:  Solving for f7.air, Initial residual = 0, Final residual = 0, No Iterations 0
diagonal:  Solving for f8.air, Initial residual = 0, Final residual = 0, No Iterations 0
diagonal:  Solving for f9.air, Initial residual = 0, Final residual = 0, No Iterations 0
diagonal:  Solving for f10.air, Initial residual = 0, Final residual = 0, No Iterations 0
diagonal:  Solving for f11.air, Initial residual = 0, Final residual = 0, No Iterations 0
diagonal:  Solving for f12.air, Initial residual = 0, Final residual = 0, No Iterations 0
diagonal:  Solving for f13.air, Initial residual = 0, Final residual = 0, No Iterations 0
diagonal:  Solving for f14.air, Initial residual = 0, Final residual = 0, No Iterations 0
diagonal:  Solving for f15.air, Initial residual = 0, Final residual = 0, No Iterations 0
diagonal:  Solving for f16.air, Initial residual = 0, Final residual = 0, No Iterations 0
diagonal:  Solving for f17.air, Initial residual = 0, Final residual = 0, No Iterations 0
diagonal:  Solving for f18.air, Initial residual = 0, Final residual = 0, No Iterations 0
diagonal:  Solving for f19.air, Initial residual = 0, Final residual = 0, No Iterations 0
diagonal:  Solving for f20.air, Initial residual = 0, Final residual = 0, No Iterations 0
diagonal:  Solving for f21.air, Initial residual = 0, Final residual = 0, No Iterations 0
diagonal:  Solving for f22.air, Initial residual = 0, Final residual = 0, No Iterations 0
diagonal:  Solving for f23.air, Initial residual = 0, Final residual = 0, No Iterations 0
diagonal:  Solving for f24.air, Initial residual = 0, Final residual = 0, No Iterations 0
diagonal:  Solving for f25.air, Initial residual = 0, Final residual = 0, No Iterations 0
diagonal:  Solving for f26.air, Initial residual = 0, Final residual = 0, No Iterations 0
diagonal:  Solving for f27.air, Initial residual = 0, Final residual = 0, No Iterations 0
diagonal:  Solving for f28.air, Initial residual = 0, Final residual = 0, No Iterations 0
bubbles sizeGroup phase fraction first, last = 0 0
air sizeGroups-sum volume fraction, min, max = 1.00016 1.00016 1.00016
air Sauter mean diameter, min, max = 1.82041 1.82041 1.82041
Constructing momentum equations
diagonal:  Solving for p_rgh, Initial residual = 0, Final residual = 0, No Iterations 0
PIMPLE: Iteration 2
MULES: Solving for alpha.air
air fraction, min, max = 0.068084 0.068084 0.068084
populationBalance bubbles: Iteration 1
diagonal:  Solving for f0.air, Initial residual = 0, Final residual = 0, No Iterations 0
diagonal:  Solving for f1.air, Initial residual = 0, Final residual = 0, No Iterations 0
diagonal:  Solving for f2.air, Initial residual = 0, Final residual = 0, No Iterations 0
diagonal:  Solving for f3.air, Initial residual = 0, Final residual = 0, No Iterations 0
diagonal:  Solving for f4.air, Initial residual = 0, Final residual = 0, No Iterations 0
diagonal:  Solving for f5.air, Initial residual = 0, Final residual = 0, No Iterations 0
diagonal:  Solving for f6.air, Initial residual = 0, Final residual = 0, No Iterations 0
diagonal:  Solving for f7.air, Initial residual = 0, Final residual = 0, No Iterations 0
diagonal:  Solving for f8.air, Initial residual = 0, Final residual = 0, No Iterations 0
diagonal:  Solving for f9.air, Initial residual = 0, Final residual = 0, No Iterations 0
diagonal:  Solving for f10.air, Initial residual = 0, Final residual = 0, No Iterations 0
diagonal:  Solving for f11.air, Initial residual = 0, Final residual = 0, No Iterations 0
diagonal:  Solving for f12.air, Initial residual = 0, Final residual = 0, No Iterations 0
diagonal:  Solving for f13.air, Initial residual = 0, Final residual = 0, No Iterations 0
diagonal:  Solving for f14.air, Initial residual = 0, Final residual = 0, No Iterations 0
diagonal:  Solving for f15.air, Initial residual = 0, Final residual = 0, No Iterations 0
diagonal:  Solving for f16.air, Initial residual = 0, Final residual = 0, No Iterations 0
diagonal:  Solving for f17.air, Initial residual = 0, Final residual = 0, No Iterations 0
diagonal:  Solving for f18.air, Initial residual = 0, Final residual = 0, No Iterations 0
diagonal:  Solving for f19.air, Initial residual = 0, Final residual = 0, No Iterations 0
diagonal:  Solving for f20.air, Initial residual = 0, Final residual = 0, No Iterations 0
diagonal:  Solving for f21.air, Initial residual = 0, Final residual = 0, No Iterations 0
diagonal:  Solving for f22.air, Initial residual = 0, Final residual = 0, No Iterations 0
diagonal:  Solving for f23.air, Initial residual = 0, Final residual = 0, No Iterations 0
diagonal:  Solving for f24.air, Initial residual = 0, Final residual = 0, No Iterations 0
diagonal:  Solving for f25.air, Initial residual = 0, Final residual = 0, No Iterations 0
diagonal:  Solving for f26.air, Initial residual = 0, Final residual = 0, No Iterations 0
diagonal:  Solving for f27.air, Initial residual = 0, Final residual = 0, No Iterations 0
diagonal:  Solving for f28.air, Initial residual = 0, Final residual = 0, No Iterations 0
bubbles sizeGroup phase fraction first, last = 0 0
air sizeGroups-sum volume fraction, min, max = 1.00012 1.00012 1.00012
air Sauter mean diameter, min, max = 1.82055 1.82055 1.82055
Constructing momentum equations
diagonal:  Solving for p_rgh, Initial residual = 0, Final residual = 0, No Iterations 0
ExecutionTime = 0.272981 s  ClockTime = 0 s

Courant Number mean: 0 max: 0
Time = 0.08s

PIMPLE: Iteration 1
MULES: Solving for alpha.air
air fraction, min, max = 0.0683026 0.0683026 0.0683026
populationBalance bubbles: Iteration 1
diagonal:  Solving for f0.air, Initial residual = 0, Final residual = 0, No Iterations 0
diagonal:  Solving for f1.air, Initial residual = 0, Final residual = 0, No Iterations 0
diagonal:  Solving for f2.air, Initial residual = 0, Final residual = 0, No Iterations 0
diagonal:  Solving for f3.air, Initial residual = 0, Final residual = 0, No Iterations 0
diagonal:  Solving for f4.air, Initial residual = 0, Final residual = 0, No Iterations 0
diagonal:  Solving for f5.air, Initial residual = 0, Final residual = 0, No Iterations 0
diagonal:  Solving for f6.air, Initial residual = 0, Final residual = 0, No Iterations 0
diagonal:  Solving for f7.air, Initial residual = 0, Final residual = 0, No Iterations 0
diagonal:  Solving for f8.air, Initial residual = 0, Final residual = 0, No Iterations 0
diagonal:  Solving for f9.air, Initial residual = 0, Final residual = 0, No Iterations 0
diagonal:  Solving for f10.air, Initial residual = 0, Final residual = 0, No Iterations 0
diagonal:  Solving for f11.air, Initial residual = 0, Final residual = 0, No Iterations 0
diagonal:  Solving for f12.air, Initial residual = 0, Final residual = 0, No Iterations 0
diagonal:  Solving for f13.air, Initial residual = 0, Final residual = 0, No Iterations 0
diagonal:  Solving for f14.air, Initial residual = 0, Final residual = 0, No Iterations 0
diagonal:  Solving for f15.air, Initial residual = 0, Final residual = 0, No Iterations 0
diagonal:  Solving for f16.air, Initial residual = 0, Final residual = 0, No Iterations 0
diagonal:  Solving for f17.air, Initial residual = 0, Final residual = 0, No Iterations 0
diagonal:  Solving for f18.air, Initial residual = 0, Final residual = 0, No Iterations 0
diagonal:  Solving for f19.air, Initial residual = 0, Final residual = 0, No Iterations 0
diagonal:  Solving for f20.air, Initial residual = 0, Final residual = 0, No Iterations 0
diagonal:  Solving for f21.air, Initial residual = 0, Final residual = 0, No Iterations 0
diagonal:  Solving for f22.air, Initial residual = 0, Final residual = 0, No Iterations 0
diagonal:  Solving for f23.air, Initial residual = 0, Final residual = 0, No Iterations 0
diagonal:  Solving for f24.air, Initial residual = 0, Final residual = 0, No Iterations 0
diagonal:  Solving for f25.air, Initial residual = 0, Final residual = 0, No Iterations 0
diagonal:  Solving for f26.air, Initial residual = 0, Final residual = 0, No Iterations 0
diagonal:  Solving for f27.air, Initial residual = 0, Final residual = 0, No Iterations 0
diagonal:  Solving for f28.air, Initial residual = 0, Final residual = 0, No Iterations 0
bubbles sizeGroup phase fraction first, last = 0 8.7912e-30
air sizeGroups-sum volume fraction, min, max = 1.00017 1.00017 1.00017
air Sauter mean diameter, min, max = 1.82238 1.82238 1.82238
Constructing momentum equations
diagonal:  Solving for p_rgh, Initial residual = 0, Final residual = 0, No Iterations 0
PIMPLE: Iteration 2
MULES: Solving for alpha.air
air fraction, min, max = 0.0683026 0.0683026 0.0683026
populationBalance bubbles: Iteration 1
diagonal:  Solving for f0.air, Initial residual = 0, Final residual = 0, No Iterations 0
diagonal:  Solving for f1.air, Initial residual = 0, Final residual = 0, No Iterations 0
diagonal:  Solving for f2.air, Initial residual = 0, Final residual = 0, No Iterations 0
diagonal:  Solving for f3.air, Initial residual = 0, Final residual = 0, No Iterations 0
diagonal:  Solving for f4.air, Initial residual = 0, Final residual = 0, No Iterations 0
diagonal:  Solving for f5.air, Initial residual = 0, Final residual = 0, No Iterations 0
diagonal:  Solving for f6.air, Initial residual = 0, Final residual = 0, No Iterations 0
diagonal:  Solving for f7.air, Initial residual = 0, Final residual = 0, No Iterations 0
diagonal:  Solving for f8.air, Initial residual = 0, Final residual = 0, No Iterations 0
diagonal:  Solving for f9.air, Initial residual = 0, Final residual = 0, No Iterations 0
diagonal:  Solving for f10.air, Initial residual = 0, Final residual = 0, No Iterations 0
diagonal:  Solving for f11.air, Initial residual = 0, Final residual = 0, No Iterations 0
diagonal:  Solving for f12.air, Initial residual = 0, Final residual = 0, No Iterations 0
diagonal:  Solving for f13.air, Initial residual = 0, Final residual = 0, No Iterations 0
diagonal:  Solving for f14.air, Initial residual = 0, Final residual = 0, No Iterations 0
diagonal:  Solving for f15.air, Initial residual = 0, Final residual = 0, No Iterations 0
diagonal:  Solving for f16.air, Initial residual = 0, Final residual = 0, No Iterations 0
diagonal:  Solving for f17.air, Initial residual = 0, Final residual = 0, No Iterations 0
diagonal:  Solving for f18.air, Initial residual = 0, Final residual = 0, No Iterations 0
diagonal:  Solving for f19.air, Initial residual = 0, Final residual = 0, No Iterations 0
diagonal:  Solving for f20.air, Initial residual = 0, Final residual = 0, No Iterations 0
diagonal:  Solving for f21.air, Initial residual = 0, Final residual = 0, No Iterations 0
diagonal:  Solving for f22.air, Initial residual = 0, Final residual = 0, No Iterations 0
diagonal:  Solving for f23.air, Initial residual = 0, Final residual = 0, No Iterations 0
diagonal:  Solving for f24.air, Initial residual = 0, Final residual = 0, No Iterations 0
diagonal:  Solving for f25.air, Initial residual = 0, Final residual = 0, No Iterations 0
diagonal:  Solving for f26.air, Initial residual = 0, Final residual = 0, No Iterations 0
diagonal:  Solving for f27.air, Initial residual = 0, Final residual = 0, No Iterations 0
diagonal:  Solving for f28.air, Initial residual = 0, Final residual = 0, No Iterations 0
bubbles sizeGroup phase fraction first, last = 0 6.93042e-29
air sizeGroups-sum volume fraction, min, max = 1.00012 1.00012 1.00012
air Sauter mean diameter, min, max = 1.82251 1.82251 1.82251
Constructing momentum equations
diagonal:  Solving for p_rgh, Initial residual = 0, Final residual = 0, No Iterations 0
ExecutionTime = 0.284917 s  ClockTime = 1 s

Courant Number mean: 0 max: 0
Time = 0.09s

PIMPLE: Iteration 1
MULES: Solving for alpha.air
air fraction, min, max = 0.0685213 0.0685213 0.0685213
populationBalance bubbles: Iteration 1
diagonal:  Solving for f0.air, Initial residual = 0, Final residual = 0, No Iterations 0
diagonal:  Solving for f1.air, Initial residual = 0, Final residual = 0, No Iterations 0
diagonal:  Solving for f2.air, Initial residual = 0, Final residual = 0, No Iterations 0
diagonal:  Solving for f3.air, Initial residual = 0, Final residual = 0, No Iterations 0
diagonal:  Solving for f4.air, Initial residual = 0, Final residual = 0, No Iterations 0
diagonal:  Solving for f5.air, Initial residual = 0, Final residual = 0, No Iterations 0
diagonal:  Solving for f6.air, Initial residual = 0, Final residual = 0, No Iterations 0
diagonal:  Solving for f7.air, Initial residual = 0, Final residual = 0, No Iterations 0
diagonal:  Solving for f8.air, Initial residual = 0, Final residual = 0, No Iterations 0
diagonal:  Solving for f9.air, Initial residual = 0, Final residual = 0, No Iterations 0
diagonal:  Solving for f10.air, Initial residual = 0, Final residual = 0, No Iterations 0
diagonal:  Solving for f11.air, Initial residual = 0, Final residual = 0, No Iterations 0
diagonal:  Solving for f12.air, Initial residual = 0, Final residual = 0, No Iterations 0
diagonal:  Solving for f13.air, Initial residual = 0, Final residual = 0, No Iterations 0
diagonal:  Solving for f14.air, Initial residual = 0, Final residual = 0, No Iterations 0
diagonal:  Solving for f15.air, Initial residual = 0, Final residual = 0, No Iterations 0
diagonal:  Solving for f16.air, Initial residual = 0, Final residual = 0, No Iterations 0
diagonal:  Solving for f17.air, Initial residual = 0, Final residual = 0, No Iterations 0
diagonal:  Solving for f18.air, Initial residual = 0, Final residual = 0, No Iterations 0
diagonal:  Solving for f19.air, Initial residual = 0, Final residual = 0, No Iterations 0
diagonal:  Solving for f20.air, Initial residual = 0, Final residual = 0, No Iterations 0
diagonal:  Solving for f21.air, Initial residual = 0, Final residual = 0, No Iterations 0
diagonal:  Solving for f22.air, Initial residual = 0, Final residual = 0, No Iterations 0
diagonal:  Solving for f23.air, Initial residual = 0, Final residual = 0, No Iterations 0
diagonal:  Solving for f24.air, Initial residual = 0, Final residual = 0, No Iterations 0
diagonal:  Solving for f25.air, Initial residual = 0, Final residual = 0, No Iterations 0
diagonal:  Solving for f26.air, Initial residual = 0, Final residual = 0, No Iterations 0
diagonal:  Solving for f27.air, Initial residual = 0, Final residual = 0, No Iterations 0
diagonal:  Solving for f28.air, Initial residual = 0, Final residual = 0, No Iterations 0
bubbles sizeGroup phase fraction first, last = 0 3.7854e-28
air sizeGroups-sum volume fraction, min, max = 1.00017 1.00017 1.00017
air Sauter mean diameter, min, max = 1.82434 1.82434 1.82434
Constructing momentum equations
diagonal:  Solving for p_rgh, Initial residual = 0, Final residual = 0, No Iterations 0
PIMPLE: Iteration 2
MULES: Solving for alpha.air
air fraction, min, max = 0.0685213 0.0685213 0.0685213
populationBalance bubbles: Iteration 1
diagonal:  Solving for f0.air, Initial residual = 0, Final residual = 0, No Iterations 0
diagonal:  Solving for f1.air, Initial residual = 0, Final residual = 0, No Iterations 0
diagonal:  Solving for f2.air, Initial residual = 0, Final residual = 0, No Iterations 0
diagonal:  Solving for f3.air, Initial residual = 0, Final residual = 0, No Iterations 0
diagonal:  Solving for f4.air, Initial residual = 0, Final residual = 0, No Iterations 0
diagonal:  Solving for f5.air, Initial residual = 0, Final residual = 0, No Iterations 0
diagonal:  Solving for f6.air, Initial residual = 0, Final residual = 0, No Iterations 0
diagonal:  Solving for f7.air, Initial residual = 0, Final residual = 0, No Iterations 0
diagonal:  Solving for f8.air, Initial residual = 0, Final residual = 0, No Iterations 0
diagonal:  Solving for f9.air, Initial residual = 0, Final residual = 0, No Iterations 0
diagonal:  Solving for f10.air, Initial residual = 0, Final residual = 0, No Iterations 0
diagonal:  Solving for f11.air, Initial residual = 0, Final residual = 0, No Iterations 0
diagonal:  Solving for f12.air, Initial residual = 0, Final residual = 0, No Iterations 0
diagonal:  Solving for f13.air, Initial residual = 0, Final residual = 0, No Iterations 0
diagonal:  Solving for f14.air, Initial residual = 0, Final residual = 0, No Iterations 0
diagonal:  Solving for f15.air, Initial residual = 0, Final residual = 0, No Iterations 0
diagonal:  Solving for f16.air, Initial residual = 0, Final residual = 0, No Iterations 0
diagonal:  Solving for f17.air, Initial residual = 0, Final residual = 0, No Iterations 0
diagonal:  Solving for f18.air, Initial residual = 0, Final residual = 0, No Iterations 0
diagonal:  Solving for f19.air, Initial residual = 0, Final residual = 0, No Iterations 0
diagonal:  Solving for f20.air, Initial residual = 0, Final residual = 0, No Iterations 0
diagonal:  Solving for f21.air, Initial residual = 0, Final residual = 0, No Iterations 0
diagonal:  Solving for f22.air, Initial residual = 0, Final residual = 0, No Iterations 0
diagonal:  Solving for f23.air, Initial residual = 0, Final residual = 0, No Iterations 0
diagonal:  Solving for f24.air, Initial residual = 0, Final residual = 0, No Iterations 0
diagonal:  Solving for f25.air, Initial residual = 0, Final residual = 0, No Iterations 0
diagonal:  Solving for f26.air, Initial residual = 0, Final residual = 0, No Iterations 0
diagonal:  Solving for f27.air, Initial residual = 0, Final residual = 0, No Iterations 0
diagonal:  Solving for f28.air, Initial residual = 0, Final residual = 0, No Iterations 0
bubbles sizeGroup phase fraction first, last = 0 1.32561e-27
air sizeGroups-sum volume fraction, min, max = 1.00012 1.00012 1.00012
air Sauter mean diameter, min, max = 1.82447 1.82447 1.82447
Constructing momentum equations
diagonal:  Solving for p_rgh, Initial residual = 0, Final residual = 0, No Iterations 0
ExecutionTime = 0.293429 s  ClockTime = 1 s

Courant Number mean: 0 max: 0
Time = 0.1s

PIMPLE: Iteration 1
MULES: Solving for alpha.air
air fraction, min, max = 0.0687399 0.0687399 0.0687399
populationBalance bubbles: Iteration 1
diagonal:  Solving for f0.air, Initial residual = 0, Final residual = 0, No Iterations 0
diagonal:  Solving for f1.air, Initial residual = 0, Final residual = 0, No Iterations 0
diagonal:  Solving for f2.air, Initial residual = 0, Final residual = 0, No Iterations 0
diagonal:  Solving for f3.air, Initial residual = 0, Final residual = 0, No Iterations 0
diagonal:  Solving for f4.air, Initial residual = 0, Final residual = 0, No Iterations 0
diagonal:  Solving for f5.air, Initial residual = 0, Final residual = 0, No Iterations 0
diagonal:  Solving for f6.air, Initial residual = 0, Final residual = 0, No Iterations 0
diagonal:  Solving for f7.air, Initial residual = 0, Final residual = 0, No Iterations 0
diagonal:  Solving for f8.air, Initial residual = 0, Final residual = 0, No Iterations 0
diagonal:  Solving for f9.air, Initial residual = 0, Final residual = 0, No Iterations 0
diagonal:  Solving for f10.air, Initial residual = 0, Final residual = 0, No Iterations 0
diagonal:  Solving for f11.air, Initial residual = 0, Final residual = 0, No Iterations 0
diagonal:  Solving for f12.air, Initial residual = 0, Final residual = 0, No Iterations 0
diagonal:  Solving for f13.air, Initial residual = 0, Final residual = 0, No Iterations 0
diagonal:  Solving for f14.air, Initial residual = 0, Final residual = 0, No Iterations 0
diagonal:  Solving for f15.air, Initial residual = 0, Final residual = 0, No Iterations 0
diagonal:  Solving for f16.air, Initial residual = 0, Final residual = 0, No Iterations 0
diagonal:  Solving for f17.air, Initial residual = 0, Final residual = 0, No Iterations 0
diagonal:  Solving for f18.air, Initial residual = 0, Final residual = 0, No Iterations 0
diagonal:  Solving for f19.air, Initial residual = 0, Final residual = 0, No Iterations 0
diagonal:  Solving for f20.air, Initial residual = 0, Final residual = 0, No Iterations 0
diagonal:  Solving for f21.air, Initial residual = 0, Final residual = 0, No Iterations 0
diagonal:  Solving for f22.air, Initial residual = 0, Final residual = 0, No Iterations 0
diagonal:  Solving for f23.air, Initial residual = 0, Final residual = 0, No Iterations 0
diagonal:  Solving for f24.air, Initial residual = 0, Final residual = 0, No Iterations 0
diagonal:  Solving for f25.air, Initial residual = 0, Final residual = 0, No Iterations 0
diagonal:  Solving for f26.air, Initial residual = 0, Final residual = 0, No Iterations 0
diagonal:  Solving for f27.air, Initial residual = 0, Final residual = 0, No Iterations 0
diagonal:  Solving for f28.air, Initial residual = 0, Final residual = 0, No Iterations 0
bubbles sizeGroup phase fraction first, last = 0 4.816e-27
air sizeGroups-sum volume fraction, min, max = 1.00017 1.00017 1.00017
air Sauter mean diameter, min, max = 1.8263 1.8263 1.8263
Constructing momentum equations
diagonal:  Solving for p_rgh, Initial residual = 0, Final residual = 0, No Iterations 0
PIMPLE: Iteration 2
MULES: Solving for alpha.air
air fraction, min, max = 0.06874 0.06874 0.06874
populationBalance bubbles: Iteration 1
diagonal:  Solving for f0.air, Initial residual = 0, Final residual = 0, No Iterations 0
diagonal:  Solving for f1.air, Initial residual = 0, Final residual = 0, No Iterations 0
diagonal:  Solving for f2.air, Initial residual = 0, Final residual = 0, No Iterations 0
diagonal:  Solving for f3.air, Initial residual = 0, Final residual = 0, No Iterations 0
diagonal:  Solving for f4.air, Initial residual = 0, Final residual = 0, No Iterations 0
diagonal:  Solving for f5.air, Initial residual = 0, Final residual = 0, No Iterations 0
diagonal:  Solving for f6.air, Initial residual = 0, Final residual = 0, No Iterations 0
diagonal:  Solving for f7.air, Initial residual = 0, Final residual = 0, No Iterations 0
diagonal:  Solving for f8.air, Initial residual = 0, Final residual = 0, No Iterations 0
diagonal:  Solving for f9.air, Initial residual = 0, Final residual = 0, No Iterations 0
diagonal:  Solving for f10.air, Initial residual = 0, Final residual = 0, No Iterations 0
diagonal:  Solving for f11.air, Initial residual = 0, Final residual = 0, No Iterations 0
diagonal:  Solving for f12.air, Initial residual = 0, Final residual = 0, No Iterations 0
diagonal:  Solving for f13.air, Initial residual = 0, Final residual = 0, No Iterations 0
diagonal:  Solving for f14.air, Initial residual = 0, Final residual = 0, No Iterations 0
diagonal:  Solving for f15.air, Initial residual = 0, Final residual = 0, No Iterations 0
diagonal:  Solving for f16.air, Initial residual = 0, Final residual = 0, No Iterations 0
diagonal:  Solving for f17.air, Initial residual = 0, Final residual = 0, No Iterations 0
diagonal:  Solving for f18.air, Initial residual = 0, Final residual = 0, No Iterations 0
diagonal:  Solving for f19.air, Initial residual = 0, Final residual = 0, No Iterations 0
diagonal:  Solving for f20.air, Initial residual = 0, Final residual = 0, No Iterations 0
diagonal:  Solving for f21.air, Initial residual = 0, Final residual = 0, No Iterations 0
diagonal:  Solving for f22.air, Initial residual = 0, Final residual = 0, No Iterations 0
diagonal:  Solving for f23.air, Initial residual = 0, Final residual = 0, No Iterations 0
diagonal:  Solving for f24.air, Initial residual = 0, Final residual = 0, No Iterations 0
diagonal:  Solving for f25.air, Initial residual = 0, Final residual = 0, No Iterations 0
diagonal:  Solving for f26.air, Initial residual = 0, Final residual = 0, No Iterations 0
diagonal:  Solving for f27.air, Initial residual = 0, Final residual = 0, No Iterations 0
diagonal:  Solving for f28.air, Initial residual = 0, Final residual = 0, No Iterations 0
bubbles sizeGroup phase fraction first, last = 0 1.21278e-26
air sizeGroups-sum volume fraction, min, max = 1.00012 1.00012 1.00012
air Sauter mean diameter, min, max = 1.82643 1.82643 1.82643
Constructing momentum equations
diagonal:  Solving for p_rgh, Initial residual = 0, Final residual = 0, No Iterations 0
ExecutionTime = 0.302669 s  ClockTime = 1 s

Courant Number mean: 0 max: 0
Time = 0.11s

PIMPLE: Iteration 1
MULES: Solving for alpha.air
air fraction, min, max = 0.0689586 0.0689586 0.0689586
populationBalance bubbles: Iteration 1
diagonal:  Solving for f0.air, Initial residual = 0, Final residual = 0, No Iterations 0
diagonal:  Solving for f1.air, Initial residual = 0, Final residual = 0, No Iterations 0
diagonal:  Solving for f2.air, Initial residual = 0, Final residual = 0, No Iterations 0
diagonal:  Solving for f3.air, Initial residual = 0, Final residual = 0, No Iterations 0
diagonal:  Solving for f4.air, Initial residual = 0, Final residual = 0, No Iterations 0
diagonal:  Solving for f5.air, Initial residual = 0, Final residual = 0, No Iterations 0
diagonal:  Solving for f6.air, Initial residual = 0, Final residual = 0, No Iterations 0
diagonal:  Solving for f7.air, Initial residual = 0, Final residual = 0, No Iterations 0
diagonal:  Solving for f8.air, Initial residual = 0, Final residual = 0, No Iterations 0
diagonal:  Solving for f9.air, Initial residual = 0, Final residual = 0, No Iterations 0
diagonal:  Solving for f10.air, Initial residual = 0, Final residual = 0, No Iterations 0
diagonal:  Solving for f11.air, Initial residual = 0, Final residual = 0, No Iterations 0
diagonal:  Solving for f12.air, Initial residual = 0, Final residual = 0, No Iterations 0
diagonal:  Solving for f13.air, Initial residual = 0, Final residual = 0, No Iterations 0
diagonal:  Solving for f14.air, Initial residual = 0, Final residual = 0, No Iterations 0
diagonal:  Solving for f15.air, Initial residual = 0, Final residual = 0, No Iterations 0
diagonal:  Solving for f16.air, Initial residual = 0, Final residual = 0, No Iterations 0
diagonal:  Solving for f17.air, Initial residual = 0, Final residual = 0, No Iterations 0
diagonal:  Solving for f18.air, Initial residual = 0, Final residual = 0, No Iterations 0
diagonal:  Solving for f19.air, Initial residual = 0, Final residual = 0, No Iterations 0
diagonal:  Solving for f20.air, Initial residual = 0, Final residual = 0, No Iterations 0
diagonal:  Solving for f21.air, Initial residual = 0, Final residual = 0, No Iterations 0
diagonal:  Solving for f22.air, Initial residual = 0, Final residual = 0, No Iterations 0
diagonal:  Solving for f23.air, Initial residual = 0, Final residual = 0, No Iterations 0
diagonal:  Solving for f24.air, Initial residual = 0, Final residual = 0, No Iterations 0
diagonal:  Solving for f25.air, Initial residual = 0, Final residual = 0, No Iterations 0
diagonal:  Solving for f26.air, Initial residual = 0, Final residual = 0, No Iterations 0
diagonal:  Solving for f27.air, Initial residual = 0, Final residual = 0, No Iterations 0
diagonal:  Solving for f28.air, Initial residual = 0, Final residual = 0, No Iterations 0
bubbles sizeGroup phase fraction first, last = 0 3.57446e-26
air sizeGroups-sum volume fraction, min, max = 1.00017 1.00017 1.00017
air Sauter mean diameter, min, max = 1.82825 1.82825 1.82825
Constructing momentum equations
diagonal:  Solving for p_rgh, Initial residual = 0, Final residual = 0, No Iterations 0
PIMPLE: Iteration 2
MULES: Solving for alpha.air
air fraction, min, max = 0.0689586 0.0689586 0.0689586
populationBalance bubbles: Iteration 1
diagonal:  Solving for f0.air, Initial residual = 0, Final residual = 0, No Iterations 0
diagonal:  Solving for f1.air, Initial residual = 0, Final residual = 0, No Iterations 0
diagonal:  Solving for f2.air, Initial residual = 0, Final residual = 0, No Iterations 0
diagonal:  Solving for f3.air, Initial residual = 0, Final residual = 0, No Iterations 0
diagonal:  Solving for f4.air, Initial residual = 0, Final residual = 0, No Iterations 0
diagonal:  Solving for f5.air, Initial residual = 0, Final residual = 0, No Iterations 0
diagonal:  Solving for f6.air, Initial residual = 0, Final residual = 0, No Iterations 0
diagonal:  Solving for f7.air, Initial residual = 0, Final residual = 0, No Iterations 0
diagonal:  Solving for f8.air, Initial residual = 0, Final residual = 0, No Iterations 0
diagonal:  Solving for f9.air, Initial residual = 0, Final residual = 0, No Iterations 0
diagonal:  Solving for f10.air, Initial residual = 0, Final residual = 0, No Iterations 0
diagonal:  Solving for f11.air, Initial residual = 0, Final residual = 0, No Iterations 0
diagonal:  Solving for f12.air, Initial residual = 0, Final residual = 0, No Iterations 0
diagonal:  Solving for f13.air, Initial residual = 0, Final residual = 0, No Iterations 0
diagonal:  Solving for f14.air, Initial residual = 0, Final residual = 0, No Iterations 0
diagonal:  Solving for f15.air, Initial residual = 0, Final residual = 0, No Iterations 0
diagonal:  Solving for f16.air, Initial residual = 0, Final residual = 0, No Iterations 0
diagonal:  Solving for f17.air, Initial residual = 0, Final residual = 0, No Iterations 0
diagonal:  Solving for f18.air, Initial residual = 0, Final residual = 0, No Iterations 0
diagonal:  Solving for f19.air, Initial residual = 0, Final residual = 0, No Iterations 0
diagonal:  Solving for f20.air, Initial residual = 0, Final residual = 0, No Iterations 0
diagonal:  Solving for f21.air, Initial residual = 0, Final residual = 0, No Iterations 0
diagonal:  Solving for f22.air, Initial residual = 0, Final residual = 0, No Iterations 0
diagonal:  Solving for f23.air, Initial residual = 0, Final residual = 0, No Iterations 0
diagonal:  Solving for f24.air, Initial residual = 0, Final residual = 0, No Iterations 0
diagonal:  Solving for f25.air, Initial residual = 0, Final residual = 0, No Iterations 0
diagonal:  Solving for f26.air, Initial residual = 0, Final residual = 0, No Iterations 0
diagonal:  Solving for f27.air, Initial residual = 0, Final residual = 0, No Iterations 0
diagonal:  Solving for f28.air, Initial residual = 0, Final residual = 0, No Iterations 0
bubbles sizeGroup phase fraction first, last = 0 7.43133e-26
air sizeGroups-sum volume fraction, min, max = 1.00012 1.00012 1.00012
air Sauter mean diameter, min, max = 1.82838 1.82838 1.82838
Constructing momentum equations
diagonal:  Solving for p_rgh, Initial residual = 0, Final residual = 0, No Iterations 0
ExecutionTime = 0.311279 s  ClockTime = 1 s

Courant Number mean: 0 max: 0
Time = 0.12s

PIMPLE: Iteration 1
MULES: Solving for alpha.air
air fraction, min, max = 0.0691773 0.0691773 0.0691773
populationBalance bubbles: Iteration 1
diagonal:  Solving for f0.air, Initial residual = 0, Final residual = 0, No Iterations 0
diagonal:  Solving for f1.air, Initial residual = 0, Final residual = 0, No Iterations 0
diagonal:  Solving for f2.air, Initial residual = 0, Final residual = 0, No Iterations 0
diagonal:  Solving for f3.air, Initial residual = 0, Final residual = 0, No Iterations 0
diagonal:  Solving for f4.air, Initial residual = 0, Final residual = 0, No Iterations 0
diagonal:  Solving for f5.air, Initial residual = 0, Final residual = 0, No Iterations 0
diagonal:  Solving for f6.air, Initial residual = 0, Final residual = 0, No Iterations 0
diagonal:  Solving for f7.air, Initial residual = 0, Final residual = 0, No Iterations 0
diagonal:  Solving for f8.air, Initial residual = 0, Final residual = 0, No Iterations 0
diagonal:  Solving for f9.air, Initial residual = 0, Final residual = 0, No Iterations 0
diagonal:  Solving for f10.air, Initial residual = 0, Final residual = 0, No Iterations 0
diagonal:  Solving for f11.air, Initial residual = 0, Final residual = 0, No Iterations 0
diagonal:  Solving for f12.air, Initial residual = 0, Final residual = 0, No Iterations 0
diagonal:  Solving for f13.air, Initial residual = 0, Final residual = 0, No Iterations 0
diagonal:  Solving for f14.air, Initial residual = 0, Final residual = 0, No Iterations 0
diagonal:  Solving for f15.air, Initial residual = 0, Final residual = 0, No Iterations 0
diagonal:  Solving for f16.air, Initial residual = 0, Final residual = 0, No Iterations 0
diagonal:  Solving for f17.air, Initial residual = 0, Final residual = 0, No Iterations 0
diagonal:  Solving for f18.air, Initial residual = 0, Final residual = 0, No Iterations 0
diagonal:  Solving for f19.air, Initial residual = 0, Final residual = 0, No Iterations 0
diagonal:  Solving for f20.air, Initial residual = 0, Final residual = 0, No Iterations 0
diagonal:  Solving for f21.air, Initial residual = 0, Final residual = 0, No Iterations 0
diagonal:  Solving for f22.air, Initial residual = 0, Final residual = 0, No Iterations 0
diagonal:  Solving for f23.air, Initial residual = 0, Final residual = 0, No Iterations 0
diagonal:  Solving for f24.air, Initial residual = 0, Final residual = 0, No Iterations 0
diagonal:  Solving for f25.air, Initial residual = 0, Final residual = 0, No Iterations 0
diagonal:  Solving for f26.air, Initial residual = 0, Final residual = 0, No Iterations 0
diagonal:  Solving for f27.air, Initial residual = 0, Final residual = 0, No Iterations 0
diagonal:  Solving for f28.air, Initial residual = 0, Final residual = 0, No Iterations 0
bubbles sizeGroup phase fraction first, last = 0 1.91324e-25
air sizeGroups-sum volume fraction, min, max = 1.00017 1.00017 1.00017
air Sauter mean diameter, min, max = 1.8302 1.8302 1.8302
Constructing momentum equations
diagonal:  Solving for p_rgh, Initial residual = 0, Final residual = 0, No Iterations 0
PIMPLE: Iteration 2
MULES: Solving for alpha.air
air fraction, min, max = 0.0691773 0.0691773 0.0691773
populationBalance bubbles: Iteration 1
diagonal:  Solving for f0.air, Initial residual = 0, Final residual = 0, No Iterations 0
diagonal:  Solving for f1.air, Initial residual = 0, Final residual = 0, No Iterations 0
diagonal:  Solving for f2.air, Initial residual = 0, Final residual = 0, No Iterations 0
diagonal:  Solving for f3.air, Initial residual = 0, Final residual = 0, No Iterations 0
diagonal:  Solving for f4.air, Initial residual = 0, Final residual = 0, No Iterations 0
diagonal:  Solving for f5.air, Initial residual = 0, Final residual = 0, No Iterations 0
diagonal:  Solving for f6.air, Initial residual = 0, Final residual = 0, No Iterations 0
diagonal:  Solving for f7.air, Initial residual = 0, Final residual = 0, No Iterations 0
diagonal:  Solving for f8.air, Initial residual = 0, Final residual = 0, No Iterations 0
diagonal:  Solving for f9.air, Initial residual = 0, Final residual = 0, No Iterations 0
diagonal:  Solving for f10.air, Initial residual = 0, Final residual = 0, No Iterations 0
diagonal:  Solving for f11.air, Initial residual = 0, Final residual = 0, No Iterations 0
diagonal:  Solving for f12.air, Initial residual = 0, Final residual = 0, No Iterations 0
diagonal:  Solving for f13.air, Initial residual = 0, Final residual = 0, No Iterations 0
diagonal:  Solving for f14.air, Initial residual = 0, Final residual = 0, No Iterations 0
diagonal:  Solving for f15.air, Initial residual = 0, Final residual = 0, No Iterations 0
diagonal:  Solving for f16.air, Initial residual = 0, Final residual = 0, No Iterations 0
diagonal:  Solving for f17.air, Initial residual = 0, Final residual = 0, No Iterations 0
diagonal:  Solving for f18.air, Initial residual = 0, Final residual = 0, No Iterations 0
diagonal:  Solving for f19.air, Initial residual = 0, Final residual = 0, No Iterations 0
diagonal:  Solving for f20.air, Initial residual = 0, Final residual = 0, No Iterations 0
diagonal:  Solving for f21.air, Initial residual = 0, Final residual = 0, No Iterations 0
diagonal:  Solving for f22.air, Initial residual = 0, Final residual = 0, No Iterations 0
diagonal:  Solving for f23.air, Initial residual = 0, Final residual = 0, No Iterations 0
diagonal:  Solving for f24.air, Initial residual = 0, Final residual = 0, No Iterations 0
diagonal:  Solving for f25.air, Initial residual = 0, Final residual = 0, No Iterations 0
diagonal:  Solving for f26.air, Initial residual = 0, Final residual = 0, No Iterations 0
diagonal:  Solving for f27.air, Initial residual = 0, Final residual = 0, No Iterations 0
diagonal:  Solving for f28.air, Initial residual = 0, Final residual = 0, No Iterations 0
bubbles sizeGroup phase fraction first, last = 0 3.50015e-25
air sizeGroups-sum volume fraction, min, max = 1.00013 1.00013 1.00013
air Sauter mean diameter, min, max = 1.83033 1.83033 1.83033
Constructing momentum equations
diagonal:  Solving for p_rgh, Initial residual = 0, Final residual = 0, No Iterations 0
ExecutionTime = 0.321894 s  ClockTime = 1 s

Courant Number mean: 0 max: 0
Time = 0.13s

PIMPLE: Iteration 1
MULES: Solving for alpha.air
air fraction, min, max = 0.0693959 0.0693959 0.0693959
populationBalance bubbles: Iteration 1
diagonal:  Solving for f0.air, Initial residual = 0, Final residual = 0, No Iterations 0
diagonal:  Solving for f1.air, Initial residual = 0, Final residual = 0, No Iterations 0
diagonal:  Solving for f2.air, Initial residual = 0, Final residual = 0, No Iterations 0
diagonal:  Solving for f3.air, Initial residual = 0, Final residual = 0, No Iterations 0
diagonal:  Solving for f4.air, Initial residual = 0, Final residual = 0, No Iterations 0
diagonal:  Solving for f5.air, Initial residual = 0, Final residual = 0, No Iterations 0
diagonal:  Solving for f6.air, Initial residual = 0, Final residual = 0, No Iterations 0
diagonal:  Solving for f7.air, Initial residual = 0, Final residual = 0, No Iterations 0
diagonal:  Solving for f8.air, Initial residual = 0, Final residual = 0, No Iterations 0
diagonal:  Solving for f9.air, Initial residual = 0, Final residual = 0, No Iterations 0
diagonal:  Solving for f10.air, Initial residual = 0, Final residual = 0, No Iterations 0
diagonal:  Solving for f11.air, Initial residual = 0, Final residual = 0, No Iterations 0
diagonal:  Solving for f12.air, Initial residual = 0, Final residual = 0, No Iterations 0
diagonal:  Solving for f13.air, Initial residual = 0, Final residual = 0, No Iterations 0
diagonal:  Solving for f14.air, Initial residual = 0, Final residual = 0, No Iterations 0
diagonal:  Solving for f15.air, Initial residual = 0, Final residual = 0, No Iterations 0
diagonal:  Solving for f16.air, Initial residual = 0, Final residual = 0, No Iterations 0
diagonal:  Solving for f17.air, Initial residual = 0, Final residual = 0, No Iterations 0
diagonal:  Solving for f18.air, Initial residual = 0, Final residual = 0, No Iterations 0
diagonal:  Solving for f19.air, Initial residual = 0, Final residual = 0, No Iterations 0
diagonal:  Solving for f20.air, Initial residual = 0, Final residual = 0, No Iterations 0
diagonal:  Solving for f21.air, Initial residual = 0, Final residual = 0, No Iterations 0
diagonal:  Solving for f22.air, Initial residual = 0, Final residual = 0, No Iterations 0
diagonal:  Solving for f23.air, Initial residual = 0, Final residual = 0, No Iterations 0
diagonal:  Solving for f24.air, Initial residual = 0, Final residual = 0, No Iterations 0
diagonal:  Solving for f25.air, Initial residual = 0, Final residual = 0, No Iterations 0
diagonal:  Solving for f26.air, Initial residual = 0, Final residual = 0, No Iterations 0
diagonal:  Solving for f27.air, Initial residual = 0, Final residual = 0, No Iterations 0
diagonal:  Solving for f28.air, Initial residual = 0, Final residual = 0, No Iterations 0
bubbles sizeGroup phase fraction first, last = 0 8.17538e-25
air sizeGroups-sum volume fraction, min, max = 1.00017 1.00017 1.00017
air Sauter mean diameter, min, max = 1.83214 1.83214 1.83214
Constructing momentum equations
diagonal:  Solving for p_rgh, Initial residual = 0, Final residual = 0, No Iterations 0
[...]
diagonal:  Solving for f17.air, Initial residual = 0, Final residual = 0, No Iterations 0
diagonal:  Solving for f18.air, Initial residual = 0, Final residual = 0, No Iterations 0
diagonal:  Solving for f19.air, Initial residual = 0, Final residual = 0, No Iterations 0
diagonal:  Solving for f20.air, Initial residual = 0, Final residual = 0, No Iterations 0
diagonal:  Solving for f21.air, Initial residual = 0, Final residual = 0, No Iterations 0
diagonal:  Solving for f22.air, Initial residual = 0, Final residual = 0, No Iterations 0
diagonal:  Solving for f23.air, Initial residual = 0, Final residual = 0, No Iterations 0
diagonal:  Solving for f24.air, Initial residual = 0, Final residual = 0, No Iterations 0
diagonal:  Solving for f25.air, Initial residual = 0, Final residual = 0, No Iterations 0
diagonal:  Solving for f26.air, Initial residual = 0, Final residual = 0, No Iterations 0
diagonal:  Solving for f27.air, Initial residual = 0, Final residual = 0, No Iterations 0
diagonal:  Solving for f28.air, Initial residual = 0, Final residual = 0, No Iterations 0
bubbles sizeGroup phase fraction first, last = 0 0.00354456
air sizeGroups-sum volume fraction, min, max = 1.00029 1.00029 1.00029
air Sauter mean diameter, min, max = 2.5948 2.5948 2.5948
Constructing momentum equations
diagonal:  Solving for p_rgh, Initial residual = 0, Final residual = 0, No Iterations 0
ExecutionTime = 8.64287 s  ClockTime = 9 s

Courant Number mean: 0 max: 0
Time = 5.98s

PIMPLE: Iteration 1
MULES: Solving for alpha.air
air fraction, min, max = 0.197317 0.197317 0.197317
populationBalance bubbles: Iteration 1
diagonal:  Solving for f0.air, Initial residual = 0, Final residual = 0, No Iterations 0
diagonal:  Solving for f1.air, Initial residual = 0, Final residual = 0, No Iterations 0
diagonal:  Solving for f2.air, Initial residual = 0, Final residual = 0, No Iterations 0
diagonal:  Solving for f3.air, Initial residual = 0, Final residual = 0, No Iterations 0
diagonal:  Solving for f4.air, Initial residual = 0, Final residual = 0, No Iterations 0
diagonal:  Solving for f5.air, Initial residual = 0, Final residual = 0, No Iterations 0
diagonal:  Solving for f6.air, Initial residual = 0, Final residual = 0, No Iterations 0
diagonal:  Solving for f7.air, Initial residual = 0, Final residual = 0, No Iterations 0
diagonal:  Solving for f8.air, Initial residual = 0, Final residual = 0, No Iterations 0
diagonal:  Solving for f9.air, Initial residual = 0, Final residual = 0, No Iterations 0
diagonal:  Solving for f10.air, Initial residual = 0, Final residual = 0, No Iterations 0
diagonal:  Solving for f11.air, Initial residual = 0, Final residual = 0, No Iterations 0
diagonal:  Solving for f12.air, Initial residual = 0, Final residual = 0, No Iterations 0
diagonal:  Solving for f13.air, Initial residual = 0, Final residual = 0, No Iterations 0
diagonal:  Solving for f14.air, Initial residual = 0, Final residual = 0, No Iterations 0
diagonal:  Solving for f15.air, Initial residual = 0, Final residual = 0, No Iterations 0
diagonal:  Solving for f16.air, Initial residual = 0, Final residual = 0, No Iterations 0
diagonal:  Solving for f17.air, Initial residual = 0, Final residual = 0, No Iterations 0
diagonal:  Solving for f18.air, Initial residual = 0, Final residual = 0, No Iterations 0
diagonal:  Solving for f19.air, Initial residual = 0, Final residual = 0, No Iterations 0
diagonal:  Solving for f20.air, Initial residual = 0, Final residual = 0, No Iterations 0
diagonal:  Solving for f21.air, Initial residual = 0, Final residual = 0, No Iterations 0
diagonal:  Solving for f22.air, Initial residual = 0, Final residual = 0, No Iterations 0
diagonal:  Solving for f23.air, Initial residual = 0, Final residual = 0, No Iterations 0
diagonal:  Solving for f24.air, Initial residual = 0, Final residual = 0, No Iterations 0
diagonal:  Solving for f25.air, Initial residual = 0, Final residual = 0, No Iterations 0
diagonal:  Solving for f26.air, Initial residual = 0, Final residual = 0, No Iterations 0
diagonal:  Solving for f27.air, Initial residual = 0, Final residual = 0, No Iterations 0
diagonal:  Solving for f28.air, Initial residual = 0, Final residual = 0, No Iterations 0
bubbles sizeGroup phase fraction first, last = 0 0.0035934
air sizeGroups-sum volume fraction, min, max = 1.0003 1.0003 1.0003
air Sauter mean diameter, min, max = 2.59571 2.59571 2.59571
Constructing momentum equations
diagonal:  Solving for p_rgh, Initial residual = 0, Final residual = 0, No Iterations 0
PIMPLE: Iteration 2
MULES: Solving for alpha.air
air fraction, min, max = 0.197317 0.197317 0.197317
populationBalance bubbles: Iteration 1
diagonal:  Solving for f0.air, Initial residual = 0, Final residual = 0, No Iterations 0
diagonal:  Solving for f1.air, Initial residual = 0, Final residual = 0, No Iterations 0
diagonal:  Solving for f2.air, Initial residual = 0, Final residual = 0, No Iterations 0
diagonal:  Solving for f3.air, Initial residual = 0, Final residual = 0, No Iterations 0
diagonal:  Solving for f4.air, Initial residual = 0, Final residual = 0, No Iterations 0
diagonal:  Solving for f5.air, Initial residual = 0, Final residual = 0, No Iterations 0
diagonal:  Solving for f6.air, Initial residual = 0, Final residual = 0, No Iterations 0
diagonal:  Solving for f7.air, Initial residual = 0, Final residual = 0, No Iterations 0
diagonal:  Solving for f8.air, Initial residual = 0, Final residual = 0, No Iterations 0
diagonal:  Solving for f9.air, Initial residual = 0, Final residual = 0, No Iterations 0
diagonal:  Solving for f10.air, Initial residual = 0, Final residual = 0, No Iterations 0
diagonal:  Solving for f11.air, Initial residual = 0, Final residual = 0, No Iterations 0
diagonal:  Solving for f12.air, Initial residual = 0, Final residual = 0, No Iterations 0
diagonal:  Solving for f13.air, Initial residual = 0, Final residual = 0, No Iterations 0
diagonal:  Solving for f14.air, Initial residual = 0, Final residual = 0, No Iterations 0
diagonal:  Solving for f15.air, Initial residual = 0, Final residual = 0, No Iterations 0
diagonal:  Solving for f16.air, Initial residual = 0, Final residual = 0, No Iterations 0
diagonal:  Solving for f17.air, Initial residual = 0, Final residual = 0, No Iterations 0
diagonal:  Solving for f18.air, Initial residual = 0, Final residual = 0, No Iterations 0
diagonal:  Solving for f19.air, Initial residual = 0, Final residual = 0, No Iterations 0
diagonal:  Solving for f20.air, Initial residual = 0, Final residual = 0, No Iterations 0
diagonal:  Solving for f21.air, Initial residual = 0, Final residual = 0, No Iterations 0
diagonal:  Solving for f22.air, Initial residual = 0, Final residual = 0, No Iterations 0
diagonal:  Solving for f23.air, Initial residual = 0, Final residual = 0, No Iterations 0
diagonal:  Solving for f24.air, Initial residual = 0, Final residual = 0, No Iterations 0
diagonal:  Solving for f25.air, Initial residual = 0, Final residual = 0, No Iterations 0
diagonal:  Solving for f26.air, Initial residual = 0, Final residual = 0, No Iterations 0
diagonal:  Solving for f27.air, Initial residual = 0, Final residual = 0, No Iterations 0
diagonal:  Solving for f28.air, Initial residual = 0, Final residual = 0, No Iterations 0
bubbles sizeGroup phase fraction first, last = 0 0.00359385
air sizeGroups-sum volume fraction, min, max = 1.00029 1.00029 1.00029
air Sauter mean diameter, min, max = 2.59575 2.59575 2.59575
Constructing momentum equations
diagonal:  Solving for p_rgh, Initial residual = 0, Final residual = 0, No Iterations 0
ExecutionTime = 8.66224 s  ClockTime = 9 s

Courant Number mean: 0 max: 0
Time = 5.99s

PIMPLE: Iteration 1
MULES: Solving for alpha.air
air fraction, min, max = 0.197535 0.197535 0.197535
populationBalance bubbles: Iteration 1
diagonal:  Solving for f0.air, Initial residual = 0, Final residual = 0, No Iterations 0
diagonal:  Solving for f1.air, Initial residual = 0, Final residual = 0, No Iterations 0
diagonal:  Solving for f2.air, Initial residual = 0, Final residual = 0, No Iterations 0
diagonal:  Solving for f3.air, Initial residual = 0, Final residual = 0, No Iterations 0
diagonal:  Solving for f4.air, Initial residual = 0, Final residual = 0, No Iterations 0
diagonal:  Solving for f5.air, Initial residual = 0, Final residual = 0, No Iterations 0
diagonal:  Solving for f6.air, Initial residual = 0, Final residual = 0, No Iterations 0
diagonal:  Solving for f7.air, Initial residual = 0, Final residual = 0, No Iterations 0
diagonal:  Solving for f8.air, Initial residual = 0, Final residual = 0, No Iterations 0
diagonal:  Solving for f9.air, Initial residual = 0, Final residual = 0, No Iterations 0
diagonal:  Solving for f10.air, Initial residual = 0, Final residual = 0, No Iterations 0
diagonal:  Solving for f11.air, Initial residual = 0, Final residual = 0, No Iterations 0
diagonal:  Solving for f12.air, Initial residual = 0, Final residual = 0, No Iterations 0
diagonal:  Solving for f13.air, Initial residual = 0, Final residual = 0, No Iterations 0
diagonal:  Solving for f14.air, Initial residual = 0, Final residual = 0, No Iterations 0
diagonal:  Solving for f15.air, Initial residual = 0, Final residual = 0, No Iterations 0
diagonal:  Solving for f16.air, Initial residual = 0, Final residual = 0, No Iterations 0
diagonal:  Solving for f17.air, Initial residual = 0, Final residual = 0, No Iterations 0
diagonal:  Solving for f18.air, Initial residual = 0, Final residual = 0, No Iterations 0
diagonal:  Solving for f19.air, Initial residual = 0, Final residual = 0, No Iterations 0
diagonal:  Solving for f20.air, Initial residual = 0, Final residual = 0, No Iterations 0
diagonal:  Solving for f21.air, Initial residual = 0, Final residual = 0, No Iterations 0
diagonal:  Solving for f22.air, Initial residual = 0, Final residual = 0, No Iterations 0
diagonal:  Solving for f23.air, Initial residual = 0, Final residual = 0, No Iterations 0
diagonal:  Solving for f24.air, Initial residual = 0, Final residual = 0, No Iterations 0
diagonal:  Solving for f25.air, Initial residual = 0, Final residual = 0, No Iterations 0
diagonal:  Solving for f26.air, Initial residual = 0, Final residual = 0, No Iterations 0
diagonal:  Solving for f27.air, Initial residual = 0, Final residual = 0, No Iterations 0
diagonal:  Solving for f28.air, Initial residual = 0, Final residual = 0, No Iterations 0
bubbles sizeGroup phase fraction first, last = 0 0.00364323
air sizeGroups-sum volume fraction, min, max = 1.0003 1.0003 1.0003
air Sauter mean diameter, min, max = 2.59666 2.59666 2.59666
Constructing momentum equations
diagonal:  Solving for p_rgh, Initial residual = 0, Final residual = 0, No Iterations 0
PIMPLE: Iteration 2
MULES: Solving for alpha.air
air fraction, min, max = 0.197536 0.197536 0.197536
populationBalance bubbles: Iteration 1
diagonal:  Solving for f0.air, Initial residual = 0, Final residual = 0, No Iterations 0
diagonal:  Solving for f1.air, Initial residual = 0, Final residual = 0, No Iterations 0
diagonal:  Solving for f2.air, Initial residual = 0, Final residual = 0, No Iterations 0
diagonal:  Solving for f3.air, Initial residual = 0, Final residual = 0, No Iterations 0
diagonal:  Solving for f4.air, Initial residual = 0, Final residual = 0, No Iterations 0
diagonal:  Solving for f5.air, Initial residual = 0, Final residual = 0, No Iterations 0
diagonal:  Solving for f6.air, Initial residual = 0, Final residual = 0, No Iterations 0
diagonal:  Solving for f7.air, Initial residual = 0, Final residual = 0, No Iterations 0
diagonal:  Solving for f8.air, Initial residual = 0, Final residual = 0, No Iterations 0
diagonal:  Solving for f9.air, Initial residual = 0, Final residual = 0, No Iterations 0
diagonal:  Solving for f10.air, Initial residual = 0, Final residual = 0, No Iterations 0
diagonal:  Solving for f11.air, Initial residual = 0, Final residual = 0, No Iterations 0
diagonal:  Solving for f12.air, Initial residual = 0, Final residual = 0, No Iterations 0
diagonal:  Solving for f13.air, Initial residual = 0, Final residual = 0, No Iterations 0
diagonal:  Solving for f14.air, Initial residual = 0, Final residual = 0, No Iterations 0
diagonal:  Solving for f15.air, Initial residual = 0, Final residual = 0, No Iterations 0
diagonal:  Solving for f16.air, Initial residual = 0, Final residual = 0, No Iterations 0
diagonal:  Solving for f17.air, Initial residual = 0, Final residual = 0, No Iterations 0
diagonal:  Solving for f18.air, Initial residual = 0, Final residual = 0, No Iterations 0
diagonal:  Solving for f19.air, Initial residual = 0, Final residual = 0, No Iterations 0
diagonal:  Solving for f20.air, Initial residual = 0, Final residual = 0, No Iterations 0
diagonal:  Solving for f21.air, Initial residual = 0, Final residual = 0, No Iterations 0
diagonal:  Solving for f22.air, Initial residual = 0, Final residual = 0, No Iterations 0
diagonal:  Solving for f23.air, Initial residual = 0, Final residual = 0, No Iterations 0
diagonal:  Solving for f24.air, Initial residual = 0, Final residual = 0, No Iterations 0
diagonal:  Solving for f25.air, Initial residual = 0, Final residual = 0, No Iterations 0
diagonal:  Solving for f26.air, Initial residual = 0, Final residual = 0, No Iterations 0
diagonal:  Solving for f27.air, Initial residual = 0, Final residual = 0, No Iterations 0
diagonal:  Solving for f28.air, Initial residual = 0, Final residual = 0, No Iterations 0
bubbles sizeGroup phase fraction first, last = 0 0.00364369
air sizeGroups-sum volume fraction, min, max = 1.00029 1.00029 1.00029
air Sauter mean diameter, min, max = 2.5967 2.5967 2.5967
Constructing momentum equations
diagonal:  Solving for p_rgh, Initial residual = 0, Final residual = 0, No Iterations 0
ExecutionTime = 8.68068 s  ClockTime = 9 s

Courant Number mean: 0 max: 0
Time = 6s

PIMPLE: Iteration 1
MULES: Solving for alpha.air
air fraction, min, max = 0.197754 0.197754 0.197754
populationBalance bubbles: Iteration 1
diagonal:  Solving for f0.air, Initial residual = 0, Final residual = 0, No Iterations 0
diagonal:  Solving for f1.air, Initial residual = 0, Final residual = 0, No Iterations 0
diagonal:  Solving for f2.air, Initial residual = 0, Final residual = 0, No Iterations 0
diagonal:  Solving for f3.air, Initial residual = 0, Final residual = 0, No Iterations 0
diagonal:  Solving for f4.air, Initial residual = 0, Final residual = 0, No Iterations 0
diagonal:  Solving for f5.air, Initial residual = 0, Final residual = 0, No Iterations 0
diagonal:  Solving for f6.air, Initial residual = 0, Final residual = 0, No Iterations 0
diagonal:  Solving for f7.air, Initial residual = 0, Final residual = 0, No Iterations 0
diagonal:  Solving for f8.air, Initial residual = 0, Final residual = 0, No Iterations 0
diagonal:  Solving for f9.air, Initial residual = 0, Final residual = 0, No Iterations 0
diagonal:  Solving for f10.air, Initial residual = 0, Final residual = 0, No Iterations 0
diagonal:  Solving for f11.air, Initial residual = 0, Final residual = 0, No Iterations 0
diagonal:  Solving for f12.air, Initial residual = 0, Final residual = 0, No Iterations 0
diagonal:  Solving for f13.air, Initial residual = 0, Final residual = 0, No Iterations 0
diagonal:  Solving for f14.air, Initial residual = 0, Final residual = 0, No Iterations 0
diagonal:  Solving for f15.air, Initial residual = 0, Final residual = 0, No Iterations 0
diagonal:  Solving for f16.air, Initial residual = 0, Final residual = 0, No Iterations 0
diagonal:  Solving for f17.air, Initial residual = 0, Final residual = 0, No Iterations 0
diagonal:  Solving for f18.air, Initial residual = 0, Final residual = 0, No Iterations 0
diagonal:  Solving for f19.air, Initial residual = 0, Final residual = 0, No Iterations 0
diagonal:  Solving for f20.air, Initial residual = 0, Final residual = 0, No Iterations 0
diagonal:  Solving for f21.air, Initial residual = 0, Final residual = 0, No Iterations 0
diagonal:  Solving for f22.air, Initial residual = 0, Final residual = 0, No Iterations 0
diagonal:  Solving for f23.air, Initial residual = 0, Final residual = 0, No Iterations 0
diagonal:  Solving for f24.air, Initial residual = 0, Final residual = 0, No Iterations 0
diagonal:  Solving for f25.air, Initial residual = 0, Final residual = 0, No Iterations 0
diagonal:  Solving for f26.air, Initial residual = 0, Final residual = 0, No Iterations 0
diagonal:  Solving for f27.air, Initial residual = 0, Final residual = 0, No Iterations 0
diagonal:  Solving for f28.air, Initial residual = 0, Final residual = 0, No Iterations 0
bubbles sizeGroup phase fraction first, last = 0 0.00369361
air sizeGroups-sum volume fraction, min, max = 1.0003 1.0003 1.0003
air Sauter mean diameter, min, max = 2.5976 2.5976 2.5976
Constructing momentum equations
diagonal:  Solving for p_rgh, Initial residual = 0, Final residual = 0, No Iterations 0
PIMPLE: Iteration 2
MULES: Solving for alpha.air
air fraction, min, max = 0.197754 0.197754 0.197754
populationBalance bubbles: Iteration 1
diagonal:  Solving for f0.air, Initial residual = 0, Final residual = 0, No Iterations 0
diagonal:  Solving for f1.air, Initial residual = 0, Final residual = 0, No Iterations 0
diagonal:  Solving for f2.air, Initial residual = 0, Final residual = 0, No Iterations 0
diagonal:  Solving for f3.air, Initial residual = 0, Final residual = 0, No Iterations 0
diagonal:  Solving for f4.air, Initial residual = 0, Final residual = 0, No Iterations 0
diagonal:  Solving for f5.air, Initial residual = 0, Final residual = 0, No Iterations 0
diagonal:  Solving for f6.air, Initial residual = 0, Final residual = 0, No Iterations 0
diagonal:  Solving for f7.air, Initial residual = 0, Final residual = 0, No Iterations 0
diagonal:  Solving for f8.air, Initial residual = 0, Final residual = 0, No Iterations 0
diagonal:  Solving for f9.air, Initial residual = 0, Final residual = 0, No Iterations 0
diagonal:  Solving for f10.air, Initial residual = 0, Final residual = 0, No Iterations 0
diagonal:  Solving for f11.air, Initial residual = 0, Final residual = 0, No Iterations 0
diagonal:  Solving for f12.air, Initial residual = 0, Final residual = 0, No Iterations 0
diagonal:  Solving for f13.air, Initial residual = 0, Final residual = 0, No Iterations 0
diagonal:  Solving for f14.air, Initial residual = 0, Final residual = 0, No Iterations 0
diagonal:  Solving for f15.air, Initial residual = 0, Final residual = 0, No Iterations 0
diagonal:  Solving for f16.air, Initial residual = 0, Final residual = 0, No Iterations 0
diagonal:  Solving for f17.air, Initial residual = 0, Final residual = 0, No Iterations 0
diagonal:  Solving for f18.air, Initial residual = 0, Final residual = 0, No Iterations 0
diagonal:  Solving for f19.air, Initial residual = 0, Final residual = 0, No Iterations 0
diagonal:  Solving for f20.air, Initial residual = 0, Final residual = 0, No Iterations 0
diagonal:  Solving for f21.air, Initial residual = 0, Final residual = 0, No Iterations 0
diagonal:  Solving for f22.air, Initial residual = 0, Final residual = 0, No Iterations 0
diagonal:  Solving for f23.air, Initial residual = 0, Final residual = 0, No Iterations 0
diagonal:  Solving for f24.air, Initial residual = 0, Final residual = 0, No Iterations 0
diagonal:  Solving for f25.air, Initial residual = 0, Final residual = 0, No Iterations 0
diagonal:  Solving for f26.air, Initial residual = 0, Final residual = 0, No Iterations 0
diagonal:  Solving for f27.air, Initial residual = 0, Final residual = 0, No Iterations 0
diagonal:  Solving for f28.air, Initial residual = 0, Final residual = 0, No Iterations 0
bubbles sizeGroup phase fraction first, last = 0 0.00369407
air sizeGroups-sum volume fraction, min, max = 1.00029 1.00029 1.00029
air Sauter mean diameter, min, max = 2.59764 2.59764 2.59764
Constructing momentum equations
diagonal:  Solving for p_rgh, Initial residual = 0, Final residual = 0, No Iterations 0
ExecutionTime = 8.72069 s  ClockTime = 9 s

End

