/*---------------------------------------------------------------------------*\
  =========                 |
  \\      /  F ield         | OpenFOAM: The Open Source CFD Toolbox
   \\    /   O peration     | Website:  https://openfoam.org
    \\  /    A nd           | Version:  12
     \\/     M anipulation  |
\*---------------------------------------------------------------------------*/
Build  : 12-cc05c1b03c38
Exec   : boundaryFoam
Date   : Oct 04 2024
Time   : 23:19:39
Host   : "DESKTOP-KBPC6IC"
PID    : 23938
I/O    : uncollated
Case   : /home/as/openfoam/OpenFOAM-12/test/boundaryLayer/boundaryLaunderSharma
nProcs : 1
sigFpe : Enabling floating point exception trapping (FOAM_SIGFPE).
fileModificationChecking : Monitoring run-time modified files using timeStampMaster (fileModificationSkew 10)
allowSystemOperations : Allowing user-supplied system call operations

// * * * * * * * * * * * * * * * * * * * * * * * * * * * * * * * * * * * * * //
Create time

Create mesh for time = 0

Reading field U

Creating face flux

Selecting viscosity model constant
Selecting turbulence model type RAS
Selecting RAS turbulence model LaunderSharmaKE
RAS
{
    model           LaunderSharmaKE;
    turbulence      on;
    printCoeffs     on;
    Cmu             0.09;
    C1              1.44;
    C2              1.92;
    C3              0;
    sigmak          1;
    sigmaEps        1.3;
}

No fvModels present
No fvConstraints present
Generating wall data for patch: lowerWall
    Height to first cell centre y0 = 2.80937e-05

Starting time loop

Time = 1s

DICPCG:  Solving for Ux, Initial residual = 1, Final residual = 4.23373e-09, No Iterations 2
DICPCG:  Solving for Uy, Initial residual = 0, Final residual = 0, No Iterations 0
smoothSolver:  Solving for epsilon, Initial residual = 1, Final residual = 5.99792e-07, No Iterations 11
smoothSolver:  Solving for k, Initial residual = 1, Final residual = 3.01538e-07, No Iterations 5
Uncorrected Ubar = 9.99788, pressure gradient = 0.0903585
Rey = 24.4932, uTau = 1.76163, nut+ = 0, nuEff+ = 1, y+ = 4.94906, u+ = 4.94906, k+ = 0.0579703, epsilon+ = 0.790172, omega+ = 151.451
ExecutionTime = 0.009839 s  ClockTime = 0 s

Time = 2s

DICPCG:  Solving for Ux, Initial residual = 0.509178, Final residual = 2.71899e-07, No Iterations 4
DICPCG:  Solving for Uy, Initial residual = 0, Final residual = 0, No Iterations 0
smoothSolver:  Solving for epsilon, Initial residual = 0.628643, Final residual = 6.82623e-08, No Iterations 1
smoothSolver:  Solving for k, Initial residual = 0.427621, Final residual = 3.0385e-07, No Iterations 5
Uncorrected Ubar = 10.005, pressure gradient = 0.00509659
Rey = 16.0896, uTau = 1.42779, nut+ = 0, nuEff+ = 1, y+ = 4.01118, u+ = 4.01118, k+ = 0.0264827, epsilon+ = 0.549453, omega+ = 230.529
ExecutionTime = 0.011049 s  ClockTime = 0 s

Time = 3s

DICPCG:  Solving for Ux, Initial residual = 0.169756, Final residual = 1.20422e-07, No Iterations 3
DICPCG:  Solving for Uy, Initial residual = 0, Final residual = 0, No Iterations 0
smoothSolver:  Solving for epsilon, Initial residual = 0.628832, Final residual = 6.98049e-08, No Iterations 1
smoothSolver:  Solving for k, Initial residual = 0.198249, Final residual = 3.91988e-07, No Iterations 5
Uncorrected Ubar = 9.99653, pressure gradient = 0.0331867
Rey = 11.4184, uTau = 1.2028, nut+ = 0, nuEff+ = 1, y+ = 3.37911, u+ = 3.37911, k+ = 0.0111984, epsilon+ = 0.327352, omega+ = 324.801
ExecutionTime = 0.012165 s  ClockTime = 0 s

Time = 4s

DICPCG:  Solving for Ux, Initial residual = 0.0907977, Final residual = 8.29455e-07, No Iterations 3
DICPCG:  Solving for Uy, Initial residual = 0, Final residual = 0, No Iterations 0
smoothSolver:  Solving for epsilon, Initial residual = 0.628997, Final residual = 7.27013e-08, No Iterations 1
smoothSolver:  Solving for k, Initial residual = 0.0786184, Final residual = 4.29861e-07, No Iterations 5
Uncorrected Ubar = 10.0058, pressure gradient = -0.00494414
Rey = 8.6345, uTau = 1.04595, nut+ = 0, nuEff+ = 1, y+ = 2.93845, u+ = 2.93845, k+ = 0.004444, epsilon+ = 0.171772, omega+ = 429.473
ExecutionTime = 0.013237 s  ClockTime = 0 s

Time = 5s

DICPCG:  Solving for Ux, Initial residual = 0.0584288, Final residual = 1.24041e-07, No Iterations 3
DICPCG:  Solving for Uy, Initial residual = 0, Final residual = 0, No Iterations 0
smoothSolver:  Solving for epsilon, Initial residual = 0.629183, Final residual = 7.85755e-08, No Iterations 1
smoothSolver:  Solving for k, Initial residual = 0.028772, Final residual = 4.29307e-07, No Iterations 5
Uncorrected Ubar = 9.99457, pressure gradient = 0.0295784
Rey = 6.92595, uTau = 0.936765, nut+ = 0, nuEff+ = 1, y+ = 2.63172, u+ = 2.63172, k+ = 0.00166258, epsilon+ = 0.0801074, omega+ = 535.362
ExecutionTime = 0.014366 s  ClockTime = 0 s

Time = 6s

DICPCG:  Solving for Ux, Initial residual = 0.0421377, Final residual = 5.11214e-07, No Iterations 3
DICPCG:  Solving for Uy, Initial residual = 0, Final residual = 0, No Iterations 0
smoothSolver:  Solving for epsilon, Initial residual = 0.629476, Final residual = 9.13044e-08, No Iterations 1
smoothSolver:  Solving for k, Initial residual = 0.0105851, Final residual = 4.21945e-07, No Iterations 5
Uncorrected Ubar = 10.0056, pressure gradient = -0.00595438
Rey = 5.76531, uTau = 0.854678, nut+ = 0, nuEff+ = 1, y+ = 2.40111, u+ = 2.40111, k+ = 0.000599361, epsilon+ = 0.0346887, omega+ = 643.068
ExecutionTime = 0.015439 s  ClockTime = 0 s

Time = 7s

DICPCG:  Solving for Ux, Initial residual = 0.032496, Final residual = 1.48393e-07, No Iterations 3
DICPCG:  Solving for Uy, Initial residual = 0, Final residual = 0, No Iterations 0
smoothSolver:  Solving for epsilon, Initial residual = 0.629956, Final residual = 1.20173e-07, No Iterations 1
smoothSolver:  Solving for k, Initial residual = 0.00400424, Final residual = 4.08345e-07, No Iterations 5
Uncorrected Ubar = 9.99458, pressure gradient = 0.0284269
Rey = 4.98989, uTau = 0.795127, nut+ = 0, nuEff+ = 1, y+ = 2.23381, u+ = 2.23381, k+ = 0.000207812, epsilon+ = 0.0138949, omega+ = 742.919
ExecutionTime = 0.016916 s  ClockTime = 0 s

Time = 8s

DICPCG:  Solving for Ux, Initial residual = 0.026584, Final residual = 4.09526e-07, No Iterations 3
DICPCG:  Solving for Uy, Initial residual = 0, Final residual = 0, No Iterations 0
smoothSolver:  Solving for epsilon, Initial residual = 0.630951, Final residual = 1.87741e-07, No Iterations 1
smoothSolver:  Solving for k, Initial residual = 0.00164512, Final residual = 3.90926e-07, No Iterations 5
Uncorrected Ubar = 10.0054, pressure gradient = -0.00586508
Rey = 4.39205, uTau = 0.745976, nut+ = 0, nuEff+ = 1, y+ = 2.09572, u+ = 2.09572, k+ = 7.08508e-05, epsilon+ = 0.00538152, omega+ = 843.952
ExecutionTime = 0.01804 s  ClockTime = 0 s

Time = 9s

DICPCG:  Solving for Ux, Initial residual = 0.0223646, Final residual = 1.42998e-07, No Iterations 3
DICPCG:  Solving for Uy, Initial residual = 0, Final residual = 0, No Iterations 0
smoothSolver:  Solving for epsilon, Initial residual = 0.633331, Final residual = 3.49743e-07, No Iterations 1
smoothSolver:  Solving for k, Initial residual = 0.000797779, Final residual = 3.71805e-07, No Iterations 5
Uncorrected Ubar = 9.99475, pressure gradient = 0.0277734
Rey = 3.97034, uTau = 0.709259, nut+ = 0, nuEff+ = 1, y+ = 1.99257, u+ = 1.99257, k+ = 2.35199e-05, epsilon+ = 0.00197601, omega+ = 933.492
ExecutionTime = 0.019104 s  ClockTime = 0 s

Time = 10s

DICPCG:  Solving for Ux, Initial residual = 0.0195535, Final residual = 3.67908e-07, No Iterations 3
DICPCG:  Solving for Uy, Initial residual = 0, Final residual = 0, No Iterations 0
smoothSolver:  Solving for epsilon, Initial residual = 0.639454, Final residual = 7.4761e-07, No Iterations 1
smoothSolver:  Solving for k, Initial residual = 0.000486901, Final residual = 3.52247e-07, No Iterations 5
Uncorrected Ubar = 10.0052, pressure gradient = -0.00556212
Rey = 3.60651, uTau = 0.675981, nut+ = 0, nuEff+ = 1, y+ = 1.89908, u+ = 1.89908, k+ = 7.7701e-06, epsilon+ = 0.000718576, omega+ = 1027.55
ExecutionTime = 0.020178 s  ClockTime = 0 s

Time = 11s

DICPCG:  Solving for Ux, Initial residual = 0.0172232, Final residual = 1.34757e-07, No Iterations 3
DICPCG:  Solving for Uy, Initial residual = 0, Final residual = 0, No Iterations 0
smoothSolver:  Solving for epsilon, Initial residual = 0.656058, Final residual = 3.21462e-07, No Iterations 2
smoothSolver:  Solving for k, Initial residual = 0.000351157, Final residual = 3.30725e-07, No Iterations 5
Uncorrected Ubar = 9.9949, pressure gradient = 0.0272357
Rey = 3.34439, uTau = 0.650953, nut+ = 0, nuEff+ = 1, y+ = 1.82877, u+ = 1.82877, k+ = 2.51448e-06, epsilon+ = 0.000250735, omega+ = 1107.96
ExecutionTime = 0.021329 s  ClockTime = 0 s

Time = 12s

DICPCG:  Solving for Ux, Initial residual = 0.0154661, Final residual = 3.34393e-07, No Iterations 3
DICPCG:  Solving for Uy, Initial residual = 0, Final residual = 0, No Iterations 0
smoothSolver:  Solving for epsilon, Initial residual = 0.690411, Final residual = 8.30831e-07, No Iterations 2
smoothSolver:  Solving for k, Initial residual = 0.000290481, Final residual = 3.29567e-07, No Iterations 5
Uncorrected Ubar = 10.005, pressure gradient = -0.00502412
Rey = 3.0952, uTau = 0.626232, nut+ = 0, nuEff+ = 1, y+ = 1.75932, u+ = 1.75932, k+ = 8.15319e-07, epsilon+ = 8.78363e-05, omega+ = 1197.03
ExecutionTime = 0.022457 s  ClockTime = 0 s

Time = 13s

DICPCG:  Solving for Ux, Initial residual = 0.0138815, Final residual = 1.24502e-07, No Iterations 3
DICPCG:  Solving for Uy, Initial residual = 0, Final residual = 0, No Iterations 0
smoothSolver:  Solving for epsilon, Initial residual = 0.772899, Final residual = 4.94574e-07, No Iterations 3
smoothSolver:  Solving for k, Initial residual = 0.000255343, Final residual = 3.23339e-07, No Iterations 5
Uncorrected Ubar = 9.99506, pressure gradient = 0.0269072
Rey = 2.9164, uTau = 0.607875, nut+ = 0, nuEff+ = 1, y+ = 1.70775, u+ = 1.70775, k+ = 2.5967e-07, epsilon+ = 2.96866e-05, omega+ = 1270.27
ExecutionTime = 0.02355 s  ClockTime = 0 s

Time = 14s

DICPCG:  Solving for Ux, Initial residual = 0.0127623, Final residual = 3.20115e-07, No Iterations 3
DICPCG:  Solving for Uy, Initial residual = 0, Final residual = 0, No Iterations 0
smoothSolver:  Solving for epsilon, Initial residual = 0.736557, Final residual = 2.70447e-07, No Iterations 4
smoothSolver:  Solving for k, Initial residual = 0.00023273, Final residual = 3.17433e-07, No Iterations 5
Uncorrected Ubar = 10.0048, pressure gradient = -0.00440861
Rey = 2.73136, uTau = 0.588275, nut+ = 0, nuEff+ = 1, y+ = 1.65268, u+ = 1.65268, k+ = 8.32046e-08, epsilon+ = 1.01555e-05, omega+ = 1356.15
ExecutionTime = 0.024683 s  ClockTime = 0 s

Time = 15s

DICPCG:  Solving for Ux, Initial residual = 0.0116432, Final residual = 1.15213e-07, No Iterations 3
DICPCG:  Solving for Uy, Initial residual = 0, Final residual = 0, No Iterations 0
smoothSolver:  Solving for epsilon, Initial residual = 0.340564, Final residual = 3.30239e-07, No Iterations 4
smoothSolver:  Solving for k, Initial residual = 0.000216658, Final residual = 3.10221e-07, No Iterations 5
Uncorrected Ubar = 9.99522, pressure gradient = 0.026675
Rey = 2.60139, uTau = 0.574108, nut+ = 0, nuEff+ = 1, y+ = 1.61288, u+ = 1.61288, k+ = 2.62175e-08, epsilon+ = 3.3593e-06, omega+ = 1423.69
ExecutionTime = 0.025881 s  ClockTime = 0 s

Time = 16s

DICPCG:  Solving for Ux, Initial residual = 0.0108938, Final residual = 3.05413e-07, No Iterations 3
DICPCG:  Solving for Uy, Initial residual = 0, Final residual = 0, No Iterations 0
smoothSolver:  Solving for epsilon, Initial residual = 0.0971921, Final residual = 2.47102e-07, No Iterations 4
smoothSolver:  Solving for k, Initial residual = 0.000204708, Final residual = 3.02008e-07, No Iterations 5
Uncorrected Ubar = 10.0047, pressure gradient = -0.00372674
Rey = 2.45613, uTau = 0.55785, nut+ = 0, nuEff+ = 1, y+ = 1.56721, u+ = 1.56721, k+ = 8.33403e-09, epsilon+ = 1.13073e-06, omega+ = 1507.51
ExecutionTime = 0.027025 s  ClockTime = 0 s

Time = 17s

DICPCG:  Solving for Ux, Initial residual = 0.0100907, Final residual = 9.97644e-07, No Iterations 2
DICPCG:  Solving for Uy, Initial residual = 0, Final residual = 0, No Iterations 0
smoothSolver:  Solving for epsilon, Initial residual = 0.0305078, Final residual = 8.56e-07, No Iterations 3
smoothSolver:  Solving for k, Initial residual = 0.00019546, Final residual = 2.93246e-07, No Iterations 5
Uncorrected Ubar = 9.99538, pressure gradient = 0.0264566
Rey = 2.35734, uTau = 0.546516, nut+ = 0, nuEff+ = 1, y+ = 1.53536, u+ = 1.53536, k+ = 2.60694e-09, epsilon+ = 3.68315e-07, omega+ = 1569.81
ExecutionTime = 0.028121 s  ClockTime = 0 s

Time = 18s

DICPCG:  Solving for Ux, Initial residual = 0.00957714, Final residual = 2.97902e-07, No Iterations 3
DICPCG:  Solving for Uy, Initial residual = 0, Final residual = 0, No Iterations 0
smoothSolver:  Solving for epsilon, Initial residual = 0.010092, Final residual = 7.40981e-07, No Iterations 3
smoothSolver:  Solving for k, Initial residual = 0.000188419, Final residual = 2.84346e-07, No Iterations 5
Uncorrected Ubar = 10.0045, pressure gradient = -0.00293921
Rey = 2.23878, uTau = 0.532595, nut+ = 0, nuEff+ = 1, y+ = 1.49626, u+ = 1.49626, k+ = 8.24974e-10, epsilon+ = 1.22531e-07, omega+ = 1650.29
ExecutionTime = 0.029203 s  ClockTime = 0 s

Time = 19s

DICPCG:  Solving for Ux, Initial residual = 0.00896606, Final residual = 9.85216e-07, No Iterations 2
DICPCG:  Solving for Uy, Initial residual = 0, Final residual = 0, No Iterations 0
smoothSolver:  Solving for epsilon, Initial residual = 0.00341159, Final residual = 6.60833e-07, No Iterations 3
smoothSolver:  Solving for k, Initial residual = 0.000183647, Final residual = 2.76957e-07, No Iterations 5
Uncorrected Ubar = 9.99554, pressure gradient = 0.0262801
Rey = 2.16118, uTau = 0.523283, nut+ = 0, nuEff+ = 1, y+ = 1.4701, u+ = 1.4701, k+ = 2.57729e-10, epsilon+ = 3.94538e-08, omega+ = 1700.92
ExecutionTime = 0.030287 s  ClockTime = 0 s

Time = 20s

DICPCG:  Solving for Ux, Initial residual = 0.00859116, Final residual = 2.91826e-07, No Iterations 3
DICPCG:  Solving for Uy, Initial residual = 0, Final residual = 0, No Iterations 0
smoothSolver:  Solving for epsilon, Initial residual = 0.00116294, Final residual = 5.92224e-07, No Iterations 3
smoothSolver:  Solving for k, Initial residual = 0.00017939, Final residual = 9.71861e-07, No Iterations 4
Uncorrected Ubar = 10.0043, pressure gradient = -0.00209274
Rey = 2.0616, uTau = 0.511085, nut+ = 0, nuEff+ = 1, y+ = 1.43583, u+ = 1.43583, k+ = 8.24168e-11, epsilon+ = 1.30097e-08, omega+ = 1753.92
ExecutionTime = 0.031373 s  ClockTime = 0 s

Time = 21s

DICPCG:  Solving for Ux, Initial residual = 0.00810288, Final residual = 9.60474e-07, No Iterations 2
DICPCG:  Solving for Uy, Initial residual = 0, Final residual = 0, No Iterations 0
smoothSolver:  Solving for epsilon, Initial residual = 0.000418762, Final residual = 5.43905e-07, No Iterations 3
smoothSolver:  Solving for k, Initial residual = 0.000176516, Final residual = 9.48224e-07, No Iterations 4
Uncorrected Ubar = 9.99571, pressure gradient = 0.0261402
Rey = 1.9991, uTau = 0.503279, nut+ = 0, nuEff+ = 1, y+ = 1.4139, u+ = 1.4139, k+ = 2.68959e-11, epsilon+ = 4.15154e-09, omega+ = 1715.06
ExecutionTime = 0.032533 s  ClockTime = 0 s

Time = 22s

DICPCG:  Solving for Ux, Initial residual = 0.00782634, Final residual = 2.84286e-07, No Iterations 3
DICPCG:  Solving for Uy, Initial residual = 0, Final residual = 0, No Iterations 0
smoothSolver:  Solving for epsilon, Initial residual = 0.000173967, Final residual = 5.21236e-07, No Iterations 3
smoothSolver:  Solving for k, Initial residual = 0.000176819, Final residual = 9.39753e-07, No Iterations 4
Uncorrected Ubar = 10.0041, pressure gradient = -0.00119299
Rey = 1.91364, uTau = 0.492404, nut+ = 0, nuEff+ = 1, y+ = 1.38334, u+ = 1.38334, k+ = 9.90234e-12, epsilon+ = 1.35946e-09, omega+ = 1525.41
ExecutionTime = 0.034018 s  ClockTime = 0 s

Time = 23s

DICPCG:  Solving for Ux, Initial residual = 0.00742774, Final residual = 9.29792e-07, No Iterations 2
DICPCG:  Solving for Uy, Initial residual = 0, Final residual = 0, No Iterations 0
smoothSolver:  Solving for epsilon, Initial residual = 9.13727e-05, Final residual = 5.01926e-07, No Iterations 3
smoothSolver:  Solving for k, Initial residual = 0.000176798, Final residual = 9.29642e-07, No Iterations 4
Uncorrected Ubar = 9.99588, pressure gradient = 0.026027
Rey = 1.86231, uTau = 0.485755, nut+ = 0, nuEff+ = 1, y+ = 1.36467, u+ = 1.36467, k+ = 4.59751e-12, epsilon+ = 4.30735e-10, omega+ = 1040.99
ExecutionTime = 0.035143 s  ClockTime = 0 s

Time = 24s

DICPCG:  Solving for Ux, Initial residual = 0.00721712, Final residual = 2.80103e-07, No Iterations 3
DICPCG:  Solving for Uy, Initial residual = 0, Final residual = 0, No Iterations 0
smoothSolver:  Solving for epsilon, Initial residual = 6.74322e-05, Final residual = 5.02085e-07, No Iterations 3
smoothSolver:  Solving for k, Initial residual = 0.000177197, Final residual = 9.19917e-07, No Iterations 4
Uncorrected Ubar = 10.004, pressure gradient = -0.000242676
Rey = 1.78775, uTau = 0.475932, nut+ = 0, nuEff+ = 1, y+ = 1.33707, u+ = 1.33707, k+ = 3.10007e-12, epsilon+ = 1.40277e-10, omega+ = 502.775
ExecutionTime = 0.036218 s  ClockTime = 0 s

Time = 25s

DICPCG:  Solving for Ux, Initial residual = 0.00687757, Final residual = 8.84833e-07, No Iterations 2
DICPCG:  Solving for Uy, Initial residual = 0, Final residual = 0, No Iterations 0
smoothSolver:  Solving for epsilon, Initial residual = 7.07414e-05, Final residual = 5.66052e-07, No Iterations 3
smoothSolver:  Solving for k, Initial residual = 0.000185643, Final residual = 9.52793e-07, No Iterations 4
Uncorrected Ubar = 9.99605, pressure gradient = 0.0259372
Rey = 1.7449, uTau = 0.470193, nut+ = 0, nuEff+ = 1, y+ = 1.32095, u+ = 1.32095, k+ = 2.73373e-12, epsilon+ = 4.42164e-11, omega+ = 179.715
ExecutionTime = 0.037351 s  ClockTime = 0 s

Time = 26s

DICPCG:  Solving for Ux, Initial residual = 0.00671041, Final residual = 2.74749e-07, No Iterations 3
DICPCG:  Solving for Uy, Initial residual = 0, Final residual = 0, No Iterations 0
smoothSolver:  Solving for epsilon, Initial residual = 8.58934e-05, Final residual = 6.62091e-07, No Iterations 3
smoothSolver:  Solving for k, Initial residual = 0.000199653, Final residual = 2.80408e-07, No Iterations 5
Uncorrected Ubar = 10.0038, pressure gradient = 0.000760229
Rey = 1.679, uTau = 0.461229, nut+ = 0, nuEff+ = 1, y+ = 1.29576, u+ = 1.29576, k+ = 2.79847e-12, epsilon+ = 1.4378e-11, omega+ = 57.087
ExecutionTime = 0.038438 s  ClockTime = 0 s

Time = 27s

DICPCG:  Solving for Ux, Initial residual = 0.0064161, Final residual = 7.9378e-07, No Iterations 2
DICPCG:  Solving for Uy, Initial residual = 0, Final residual = 0, No Iterations 0
smoothSolver:  Solving for epsilon, Initial residual = 0.000103458, Final residual = 7.42861e-07, No Iterations 3
smoothSolver:  Solving for k, Initial residual = 0.000219161, Final residual = 3.04312e-07, No Iterations 5
Uncorrected Ubar = 9.99623, pressure gradient = 0.0258691
Rey = 1.64271, uTau = 0.456218, nut+ = 0, nuEff+ = 1, y+ = 1.28168, u+ = 1.28168, k+ = 2.955e-12, epsilon+ = 4.60336e-12, omega+ = 17.3092
ExecutionTime = 0.039511 s  ClockTime = 0 s

Time = 28s

DICPCG:  Solving for Ux, Initial residual = 0.00628493, Final residual = 2.68797e-07, No Iterations 3
DICPCG:  Solving for Uy, Initial residual = 0, Final residual = 0, No Iterations 0
smoothSolver:  Solving for epsilon, Initial residual = 0.000168135, Final residual = 2.4305e-07, No Iterations 4
smoothSolver:  Solving for k, Initial residual = 0.000295778, Final residual = 4.04932e-07, No Iterations 5
Uncorrected Ubar = 10.0036, pressure gradient = 0.00181387
Rey = 1.58388, uTau = 0.447974, nut+ = 0, nuEff+ = 1, y+ = 1.25852, u+ = 1.25852, k+ = 3.21421e-12, epsilon+ = 1.72646e-12, omega+ = 5.96813
ExecutionTime = 0.040635 s  ClockTime = 0 s

Time = 29s

DICPCG:  Solving for Ux, Initial residual = 0.00602537, Final residual = 6.40425e-07, No Iterations 2
DICPCG:  Solving for Uy, Initial residual = 0, Final residual = 0, No Iterations 0
smoothSolver:  Solving for epsilon, Initial residual = 0.000656091, Final residual = 8.64347e-07, No Iterations 4
smoothSolver:  Solving for k, Initial residual = 0.000501207, Final residual = 6.79622e-07, No Iterations 5
Uncorrected Ubar = 9.99641, pressure gradient = 0.0258435
Rey = 1.55277, uTau = 0.443553, nut+ = 0, nuEff+ = 1, y+ = 1.2461, u+ = 1.2461, k+ = 3.4563e-12, epsilon+ = 1.05181e-12, omega+ = 3.38129
ExecutionTime = 0.042327 s  ClockTime = 0 s

Time = 30s

DICPCG:  Solving for Ux, Initial residual = 0.00591928, Final residual = 2.6377e-07, No Iterations 3
DICPCG:  Solving for Uy, Initial residual = 0, Final residual = 0, No Iterations 0
smoothSolver:  Solving for epsilon, Initial residual = 0.00458618, Final residual = 2.86847e-07, No Iterations 6
smoothSolver:  Solving for k, Initial residual = 0.000589477, Final residual = 7.87802e-07, No Iterations 5
Uncorrected Ubar = 10.0034, pressure gradient = 0.00292397
Rey = 1.49982, uTau = 0.435924, nut+ = 0, nuEff+ = 1, y+ = 1.22467, u+ = 1.22467, k+ = 3.79303e-12, epsilon+ = 1.174e-12, omega+ = 3.43905
ExecutionTime = 0.043513 s  ClockTime = 0 s

Time = 31s

DICPCG:  Solving for Ux, Initial residual = 0.00568663, Final residual = 4.35431e-07, No Iterations 2
DICPCG:  Solving for Uy, Initial residual = 0, Final residual = 0, No Iterations 0
smoothSolver:  Solving for epsilon, Initial residual = 0.00500194, Final residual = 2.80841e-07, No Iterations 6
smoothSolver:  Solving for k, Initial residual = 0.000670479, Final residual = 8.88043e-07, No Iterations 5
Uncorrected Ubar = 9.99658, pressure gradient = 0.0258905
Rey = 1.47285, uTau = 0.431987, nut+ = 0, nuEff+ = 1, y+ = 1.21361, u+ = 1.21361, k+ = 4.11964e-12, epsilon+ = 1.30164e-12, omega+ = 3.51067
ExecutionTime = 0.044606 s  ClockTime = 0 s

Time = 32s

DICPCG:  Solving for Ux, Initial residual = 0.00559785, Final residual = 2.59386e-07, No Iterations 3
DICPCG:  Solving for Uy, Initial residual = 0, Final residual = 0, No Iterations 0
smoothSolver:  Solving for epsilon, Initial residual = 0.00640749, Final residual = 3.21344e-07, No Iterations 6
smoothSolver:  Solving for k, Initial residual = 0.000732896, Final residual = 9.55075e-07, No Iterations 5
Uncorrected Ubar = 10.0032, pressure gradient = 0.00405938
Rey = 1.42485, uTau = 0.424889, nut+ = 0, nuEff+ = 1, y+ = 1.19367, u+ = 1.19367, k+ = 4.58248e-12, epsilon+ = 1.69347e-12, omega+ = 4.10614
ExecutionTime = 0.045756 s  ClockTime = 0 s

Time = 33s

DICPCG:  Solving for Ux, Initial residual = 0.00538492, Final residual = 2.46899e-07, No Iterations 2
DICPCG:  Solving for Uy, Initial residual = 0, Final residual = 0, No Iterations 0
smoothSolver:  Solving for epsilon, Initial residual = 0.00680683, Final residual = 3.05866e-07, No Iterations 6
smoothSolver:  Solving for k, Initial residual = 0.000805507, Final residual = 2.9389e-07, No Iterations 6
Uncorrected Ubar = 9.99674, pressure gradient = 0.0260654
Rey = 1.40128, uTau = 0.42136, nut+ = 0, nuEff+ = 1, y+ = 1.18376, u+ = 1.18376, k+ = 5.06863e-12, epsilon+ = 1.97356e-12, omega+ = 4.32629
ExecutionTime = 0.046868 s  ClockTime = 0 s

Time = 34s

DICPCG:  Solving for Ux, Initial residual = 0.00530992, Final residual = 2.53949e-07, No Iterations 3
DICPCG:  Solving for Uy, Initial residual = 0, Final residual = 0, No Iterations 0
smoothSolver:  Solving for epsilon, Initial residual = 0.00817928, Final residual = 3.27639e-07, No Iterations 6
smoothSolver:  Solving for k, Initial residual = 0.000878236, Final residual = 3.14566e-07, No Iterations 6
Uncorrected Ubar = 10.0031, pressure gradient = 0.00516625
Rey = 1.35744, uTau = 0.414717, nut+ = 0, nuEff+ = 1, y+ = 1.16509, u+ = 1.16509, k+ = 5.77617e-12, epsilon+ = 2.80639e-12, omega+ = 5.39841
ExecutionTime = 0.048011 s  ClockTime = 0 s

Time = 35s

DICPCG:  Solving for Ux, Initial residual = 0.00511619, Final residual = 2.03702e-07, No Iterations 2
DICPCG:  Solving for Uy, Initial residual = 0, Final residual = 0, No Iterations 0
smoothSolver:  Solving for epsilon, Initial residual = 0.00873309, Final residual = 3.13734e-07, No Iterations 6
smoothSolver:  Solving for k, Initial residual = 0.000968279, Final residual = 3.44738e-07, No Iterations 6
Uncorrected Ubar = 9.99687, pressure gradient = 0.0264046
Rey = 1.33674, uTau = 0.411542, nut+ = 0, nuEff+ = 1, y+ = 1.15617, u+ = 1.15617, k+ = 6.60384e-12, epsilon+ = 3.48368e-12, omega+ = 5.86137
ExecutionTime = 0.049174 s  ClockTime = 0 s

Time = 36s

DICPCG:  Solving for Ux, Initial residual = 0.00505343, Final residual = 2.49436e-07, No Iterations 3
DICPCG:  Solving for Uy, Initial residual = 0, Final residual = 0, No Iterations 0
smoothSolver:  Solving for epsilon, Initial residual = 0.010007, Final residual = 3.19728e-07, No Iterations 6
smoothSolver:  Solving for k, Initial residual = 0.00107748, Final residual = 3.74217e-07, No Iterations 6
Uncorrected Ubar = 10.003, pressure gradient = 0.0062187
Rey = 1.29641, uTau = 0.405286, nut+ = 0, nuEff+ = 1, y+ = 1.1386, u+ = 1.1386, k+ = 7.86999e-12, epsilon+ = 5.0882e-12, omega+ = 7.18369
ExecutionTime = 0.050671 s  ClockTime = 0 s

Time = 37s

DICPCG:  Solving for Ux, Initial residual = 0.00487535, Final residual = 2.83679e-07, No Iterations 2
DICPCG:  Solving for Uy, Initial residual = 0, Final residual = 0, No Iterations 0
smoothSolver:  Solving for epsilon, Initial residual = 0.0107142, Final residual = 3.07578e-07, No Iterations 6
smoothSolver:  Solving for k, Initial residual = 0.00121887, Final residual = 4.20679e-07, No Iterations 6
Uncorrected Ubar = 9.99697, pressure gradient = 0.0269004
Rey = 1.27819, uTau = 0.402429, nut+ = 0, nuEff+ = 1, y+ = 1.13057, u+ = 1.13057, k+ = 9.56749e-12, epsilon+ = 6.62729e-12, omega+ = 7.69654
ExecutionTime = 0.051873 s  ClockTime = 0 s

Time = 38s

DICPCG:  Solving for Ux, Initial residual = 0.00482235, Final residual = 2.46676e-07, No Iterations 3
DICPCG:  Solving for Uy, Initial residual = 0, Final residual = 0, No Iterations 0
smoothSolver:  Solving for epsilon, Initial residual = 0.0119012, Final residual = 3.0277e-07, No Iterations 6
smoothSolver:  Solving for k, Initial residual = 0.00141307, Final residual = 4.7122e-07, No Iterations 6
Uncorrected Ubar = 10.0029, pressure gradient = 0.00724113
Rey = 1.24083, uTau = 0.396504, nut+ = 0, nuEff+ = 1, y+ = 1.11393, u+ = 1.11393, k+ = 1.23977e-11, epsilon+ = 9.63346e-12, omega+ = 8.63374
ExecutionTime = 0.05298 s  ClockTime = 0 s

Time = 39s

DICPCG:  Solving for Ux, Initial residual = 0.00465672, Final residual = 4.01729e-07, No Iterations 2
DICPCG:  Solving for Uy, Initial residual = 0, Final residual = 0, No Iterations 0
smoothSolver:  Solving for epsilon, Initial residual = 0.0127564, Final residual = 2.92145e-07, No Iterations 6
smoothSolver:  Solving for k, Initial residual = 0.00167405, Final residual = 5.53092e-07, No Iterations 6
Uncorrected Ubar = 9.99705, pressure gradient = 0.0275346
Rey = 1.22478, uTau = 0.393931, nut+ = 0, nuEff+ = 1, y+ = 1.1067, u+ = 1.1067, k+ = 1.68786e-11, epsilon+ = 1.30577e-11, omega+ = 8.59585
ExecutionTime = 0.054074 s  ClockTime = 0 s

Time = 40s

DICPCG:  Solving for Ux, Initial residual = 0.00461027, Final residual = 2.443e-07, No Iterations 3
DICPCG:  Solving for Uy, Initial residual = 0, Final residual = 0, No Iterations 0
smoothSolver:  Solving for epsilon, Initial residual = 0.0140225, Final residual = 2.82776e-07, No Iterations 6
smoothSolver:  Solving for k, Initial residual = 0.00204882, Final residual = 6.45951e-07, No Iterations 6
Uncorrected Ubar = 10.0028, pressure gradient = 0.0082767
Rey = 1.18997, uTau = 0.388293, nut+ = 0, nuEff+ = 1, y+ = 1.09086, u+ = 1.09086, k+ = 2.54099e-11, epsilon+ = 1.91755e-11, omega+ = 8.38498
ExecutionTime = 0.055167 s  ClockTime = 0 s

Time = 41s

DICPCG:  Solving for Ux, Initial residual = 0.00445337, Final residual = 5.27652e-07, No Iterations 2
DICPCG:  Solving for Uy, Initial residual = 0, Final residual = 0, No Iterations 0
smoothSolver:  Solving for epsilon, Initial residual = 0.0151303, Final residual = 2.75586e-07, No Iterations 6
smoothSolver:  Solving for k, Initial residual = 0.00253292, Final residual = 7.87511e-07, No Iterations 6
Uncorrected Ubar = 9.99712, pressure gradient = 0.0282995
Rey = 1.17581, uTau = 0.385976, nut+ = 0, nuEff+ = 1, y+ = 1.08435, u+ = 1.08435, k+ = 4.17672e-11, epsilon+ = 2.73366e-11, omega+ = 7.27221
ExecutionTime = 0.056365 s  ClockTime = 0 s

Time = 42s

DICPCG:  Solving for Ux, Initial residual = 0.00441201, Final residual = 2.41927e-07, No Iterations 3
DICPCG:  Solving for Uy, Initial residual = 0, Final residual = 0, No Iterations 0
smoothSolver:  Solving for epsilon, Initial residual = 0.0167458, Final residual = 2.67194e-07, No Iterations 6
smoothSolver:  Solving for k, Initial residual = 0.00316029, Final residual = 9.29927e-07, No Iterations 6
Uncorrected Ubar = 10.0027, pressure gradient = 0.00936234
Rey = 1.14323, uTau = 0.380591, nut+ = 0, nuEff+ = 1, y+ = 1.06922, u+ = 1.06922, k+ = 7.76941e-11, epsilon+ = 4.18326e-11, omega+ = 5.98252
ExecutionTime = 0.057822 s  ClockTime = 0 s

Time = 43s

DICPCG:  Solving for Ux, Initial residual = 0.00426418, Final residual = 6.52015e-07, No Iterations 2
DICPCG:  Solving for Uy, Initial residual = 0, Final residual = 0, No Iterations 0
smoothSolver:  Solving for epsilon, Initial residual = 0.0182379, Final residual = 2.63305e-07, No Iterations 6
smoothSolver:  Solving for k, Initial residual = 0.00378282, Final residual = 3.10916e-07, No Iterations 7
Uncorrected Ubar = 9.99717, pressure gradient = 0.0291934
Rey = 1.13072, uTau = 0.378502, nut+ = 0, nuEff+ = 1, y+ = 1.06335, u+ = 1.06335, k+ = 1.51841e-10, epsilon+ = 6.28846e-11, omega+ = 4.60164
ExecutionTime = 0.058986 s  ClockTime = 0 s

Time = 44s

DICPCG:  Solving for Ux, Initial residual = 0.0042284, Final residual = 2.40506e-07, No Iterations 3
DICPCG:  Solving for Uy, Initial residual = 0, Final residual = 0, No Iterations 0
smoothSolver:  Solving for epsilon, Initial residual = 0.0202575, Final residual = 2.56578e-07, No Iterations 6
smoothSolver:  Solving for k, Initial residual = 0.0043726, Final residual = 3.35014e-07, No Iterations 7
Uncorrected Ubar = 10.0026, pressure gradient = 0.010521
Rey = 1.1001, uTau = 0.373341, nut+ = 0, nuEff+ = 1, y+ = 1.04885, u+ = 1.04885, k+ = 2.88422e-10, epsilon+ = 9.77846e-11, omega+ = 3.76703
ExecutionTime = 0.060091 s  ClockTime = 0 s

Time = 45s

DICPCG:  Solving for Ux, Initial residual = 0.00408877, Final residual = 7.73165e-07, No Iterations 2
DICPCG:  Solving for Uy, Initial residual = 0, Final residual = 0, No Iterations 0
smoothSolver:  Solving for epsilon, Initial residual = 0.0217377, Final residual = 2.47624e-07, No Iterations 6
smoothSolver:  Solving for k, Initial residual = 0.00472545, Final residual = 3.5061e-07, No Iterations 7
Uncorrected Ubar = 9.99723, pressure gradient = 0.030211
Rey = 1.08902, uTau = 0.371458, nut+ = 0, nuEff+ = 1, y+ = 1.04356, u+ = 1.04356, k+ = 4.64596e-10, epsilon+ = 1.40939e-10, omega+ = 3.37066
ExecutionTime = 0.061235 s  ClockTime = 0 s

Time = 46s

DICPCG:  Solving for Ux, Initial residual = 0.00405778, Final residual = 2.39962e-07, No Iterations 3
DICPCG:  Solving for Uy, Initial residual = 0, Final residual = 0, No Iterations 0
smoothSolver:  Solving for epsilon, Initial residual = 0.0235943, Final residual = 2.39801e-07, No Iterations 6
smoothSolver:  Solving for k, Initial residual = 0.00501366, Final residual = 3.56494e-07, No Iterations 7
Uncorrected Ubar = 10.0026, pressure gradient = 0.0117656
Rey = 1.06014, uTau = 0.366499, nut+ = 0, nuEff+ = 1, y+ = 1.02963, u+ = 1.02963, k+ = 6.59677e-10, epsilon+ = 1.97374e-10, omega+ = 3.32442
ExecutionTime = 0.062375 s  ClockTime = 0 s

Time = 47s

DICPCG:  Solving for Ux, Initial residual = 0.0039256, Final residual = 8.89248e-07, No Iterations 2
DICPCG:  Solving for Uy, Initial residual = 0, Final residual = 0, No Iterations 0
smoothSolver:  Solving for epsilon, Initial residual = 0.0245475, Final residual = 2.22772e-07, No Iterations 6
smoothSolver:  Solving for k, Initial residual = 0.00503537, Final residual = 3.47629e-07, No Iterations 7
Uncorrected Ubar = 9.99728, pressure gradient = 0.0313514
Rey = 1.05033, uTau = 0.3648, nut+ = 0, nuEff+ = 1, y+ = 1.02486, u+ = 1.02486, k+ = 8.43182e-10, epsilon+ = 2.52355e-10, omega+ = 3.32543
ExecutionTime = 0.063482 s  ClockTime = 0 s

Time = 48s

DICPCG:  Solving for Ux, Initial residual = 0.00389852, Final residual = 2.41095e-07, No Iterations 3
DICPCG:  Solving for Uy, Initial residual = 0, Final residual = 0, No Iterations 0
smoothSolver:  Solving for epsilon, Initial residual = 0.0261227, Final residual = 2.26251e-07, No Iterations 6
smoothSolver:  Solving for k, Initial residual = 0.00511556, Final residual = 3.62464e-07, No Iterations 7
Uncorrected Ubar = 10.0025, pressure gradient = 0.0131179
Rey = 1.02302, uTau = 0.360025, nut+ = 0, nuEff+ = 1, y+ = 1.01144, u+ = 1.01144, k+ = 1.04423e-09, epsilon+ = 3.20484e-10, omega+ = 3.4101
ExecutionTime = 0.064594 s  ClockTime = 0 s

Time = 49s

DICPCG:  Solving for Ux, Initial residual = 0.00377304, Final residual = 9.9274e-07, No Iterations 2
DICPCG:  Solving for Uy, Initial residual = 0, Final residual = 0, No Iterations 0
smoothSolver:  Solving for epsilon, Initial residual = 0.026666, Final residual = 2.05503e-07, No Iterations 6
smoothSolver:  Solving for k, Initial residual = 0.00492817, Final residual = 3.50931e-07, No Iterations 7
Uncorrected Ubar = 9.99732, pressure gradient = 0.0326333
Rey = 1.01431, uTau = 0.358489, nut+ = 0, nuEff+ = 1, y+ = 1.00713, u+ = 1.00713, k+ = 1.23326e-09, epsilon+ = 3.8114e-10, omega+ = 3.43391
ExecutionTime = 0.065702 s  ClockTime = 0 s

Time = 50s

DICPCG:  Solving for Ux, Initial residual = 0.00374866, Final residual = 2.43492e-07, No Iterations 3
DICPCG:  Solving for Uy, Initial residual = 0, Final residual = 0, No Iterations 0
smoothSolver:  Solving for epsilon, Initial residual = 0.0281125, Final residual = 2.36702e-07, No Iterations 6
smoothSolver:  Solving for k, Initial residual = 0.00493361, Final residual = 4.10374e-07, No Iterations 7
Uncorrected Ubar = 10.0024, pressure gradient = 0.0146241
Rey = 0.988428, uTau = 0.353886, nut+ = 0, nuEff+ = 1, y+ = 0.994197, u+ = 0.994197, k+ = 1.4509e-09, epsilon+ = 4.58093e-10, omega+ = 3.50812
ExecutionTime = 0.067268 s  ClockTime = 0 s

Time = 51s

DICPCG:  Solving for Ux, Initial residual = 0.00362856, Final residual = 1.09238e-07, No Iterations 3
DICPCG:  Solving for Uy, Initial residual = 0, Final residual = 0, No Iterations 0
smoothSolver:  Solving for epsilon, Initial residual = 0.0283512, Final residual = 2.20501e-07, No Iterations 6
smoothSolver:  Solving for k, Initial residual = 0.0046422, Final residual = 4.11379e-07, No Iterations 7
Uncorrected Ubar = 9.99742, pressure gradient = 0.0337575
Rey = 0.980547, uTau = 0.352473, nut+ = 0, nuEff+ = 1, y+ = 0.990226, u+ = 0.990226, k+ = 1.64878e-09, epsilon+ = 5.20791e-10, omega+ = 3.5096
ExecutionTime = 0.068536 s  ClockTime = 0 s

Time = 52s

DICPCG:  Solving for Ux, Initial residual = 0.00360589, Final residual = 2.44201e-07, No Iterations 3
DICPCG:  Solving for Uy, Initial residual = 0, Final residual = 0, No Iterations 0
smoothSolver:  Solving for epsilon, Initial residual = 0.029733, Final residual = 3.02826e-07, No Iterations 6
smoothSolver:  Solving for k, Initial residual = 0.00465555, Final residual = 5.30509e-07, No Iterations 7
Uncorrected Ubar = 10.0023, pressure gradient = 0.0167013
Rey = 0.956305, uTau = 0.348088, nut+ = 0, nuEff+ = 1, y+ = 0.977908, u+ = 0.977908, k+ = 1.87862e-09, epsilon+ = 6.02007e-10, omega+ = 3.56057
ExecutionTime = 0.069656 s  ClockTime = 0 s

Time = 53s

DICPCG:  Solving for Ux, Initial residual = 0.00349376, Final residual = 1.27565e-07, No Iterations 3
DICPCG:  Solving for Uy, Initial residual = 0, Final residual = 0, No Iterations 0
smoothSolver:  Solving for epsilon, Initial residual = 0.0296471, Final residual = 3.07677e-07, No Iterations 6
smoothSolver:  Solving for k, Initial residual = 0.004371, Final residual = 5.64683e-07, No Iterations 7
Uncorrected Ubar = 9.99756, pressure gradient = 0.0351299
Rey = 0.948923, uTau = 0.346742, nut+ = 0, nuEff+ = 1, y+ = 0.974127, u+ = 0.974127, k+ = 2.07751e-09, epsilon+ = 6.62183e-10, omega+ = 3.54155
ExecutionTime = 0.07076 s  ClockTime = 0 s

Time = 54s

DICPCG:  Solving for Ux, Initial residual = 0.00347187, Final residual = 2.47318e-07, No Iterations 3
DICPCG:  Solving for Uy, Initial residual = 0, Final residual = 0, No Iterations 0
smoothSolver:  Solving for epsilon, Initial residual = 0.0309159, Final residual = 4.72437e-07, No Iterations 6
smoothSolver:  Solving for k, Initial residual = 0.00448217, Final residual = 7.43085e-07, No Iterations 7
Uncorrected Ubar = 10.0021, pressure gradient = 0.0190673
Rey = 0.926234, uTau = 0.342572, nut+ = 0, nuEff+ = 1, y+ = 0.962411, u+ = 0.962411, k+ = 2.30933e-09, epsilon+ = 7.42638e-10, omega+ = 3.57312
ExecutionTime = 0.07196 s  ClockTime = 0 s

Time = 55s

DICPCG:  Solving for Ux, Initial residual = 0.00336761, Final residual = 1.47436e-07, No Iterations 3
DICPCG:  Solving for Uy, Initial residual = 0, Final residual = 0, No Iterations 0
smoothSolver:  Solving for epsilon, Initial residual = 0.0304421, Final residual = 5.12532e-07, No Iterations 6
smoothSolver:  Solving for k, Initial residual = 0.00423857, Final residual = 8.12607e-07, No Iterations 7
Uncorrected Ubar = 9.99771, pressure gradient = 0.0367613
Rey = 0.919231, uTau = 0.341274, nut+ = 0, nuEff+ = 1, y+ = 0.958765, u+ = 0.958765, k+ = 2.49932e-09, epsilon+ = 7.96178e-10, omega+ = 3.53953
ExecutionTime = 0.073092 s  ClockTime = 0 s

Time = 56s

DICPCG:  Solving for Ux, Initial residual = 0.00334577, Final residual = 2.52736e-07, No Iterations 3
DICPCG:  Solving for Uy, Initial residual = 0, Final residual = 0, No Iterations 0
smoothSolver:  Solving for epsilon, Initial residual = 0.03162, Final residual = 7.71984e-07, No Iterations 6
smoothSolver:  Solving for k, Initial residual = 0.00442823, Final residual = 3.49883e-07, No Iterations 8
Uncorrected Ubar = 10.0019, pressure gradient = 0.0217313
Rey = 0.898015, uTau = 0.337313, nut+ = 0, nuEff+ = 1, y+ = 0.947636, u+ = 0.947636, k+ = 2.72276e-09, epsilon+ = 8.71504e-10, omega+ = 3.55646
ExecutionTime = 0.074489 s  ClockTime = 0 s

Time = 57s

DICPCG:  Solving for Ux, Initial residual = 0.00324896, Final residual = 1.6647e-07, No Iterations 3
DICPCG:  Solving for Uy, Initial residual = 0, Final residual = 0, No Iterations 0
smoothSolver:  Solving for epsilon, Initial residual = 0.0307454, Final residual = 8.40542e-07, No Iterations 6
smoothSolver:  Solving for k, Initial residual = 0.00425707, Final residual = 3.81003e-07, No Iterations 8
Uncorrected Ubar = 9.99786, pressure gradient = 0.0386808
Rey = 0.891293, uTau = 0.336048, nut+ = 0, nuEff+ = 1, y+ = 0.944083, u+ = 0.944083, k+ = 2.89541e-09, epsilon+ = 9.15518e-10, omega+ = 3.51329
ExecutionTime = 0.075697 s  ClockTime = 0 s

Time = 58s

DICPCG:  Solving for Ux, Initial residual = 0.0032271, Final residual = 2.59624e-07, No Iterations 3
DICPCG:  Solving for Uy, Initial residual = 0, Final residual = 0, No Iterations 0
smoothSolver:  Solving for epsilon, Initial residual = 0.0317645, Final residual = 3.40318e-07, No Iterations 7
smoothSolver:  Solving for k, Initial residual = 0.00452545, Final residual = 4.62032e-07, No Iterations 8
Uncorrected Ubar = 10.0017, pressure gradient = 0.0247759
Rey = 0.871496, uTau = 0.332295, nut+ = 0, nuEff+ = 1, y+ = 0.933539, u+ = 0.933539, k+ = 3.10176e-09, epsilon+ = 9.82391e-10, omega+ = 3.51911
ExecutionTime = 0.076825 s  ClockTime = 0 s

Time = 59s

DICPCG:  Solving for Ux, Initial residual = 0.00313722, Final residual = 1.86995e-07, No Iterations 3
DICPCG:  Solving for Uy, Initial residual = 0, Final residual = 0, No Iterations 0
smoothSolver:  Solving for epsilon, Initial residual = 0.0303887, Final residual = 3.71542e-07, No Iterations 7
smoothSolver:  Solving for k, Initial residual = 0.00444403, Final residual = 4.97368e-07, No Iterations 8
Uncorrected Ubar = 9.99801, pressure gradient = 0.0410064
Rey = 0.864974, uTau = 0.331049, nut+ = 0, nuEff+ = 1, y+ = 0.93004, u+ = 0.93004, k+ = 3.25107e-09, epsilon+ = 1.01529e-09, omega+ = 3.46992
ExecutionTime = 0.077938 s  ClockTime = 0 s

Time = 60s

DICPCG:  Solving for Ux, Initial residual = 0.00311497, Final residual = 2.6795e-07, No Iterations 3
DICPCG:  Solving for Uy, Initial residual = 0, Final residual = 0, No Iterations 0
smoothSolver:  Solving for epsilon, Initial residual = 0.0314043, Final residual = 5.26542e-07, No Iterations 7
smoothSolver:  Solving for k, Initial residual = 0.00479381, Final residual = 5.85803e-07, No Iterations 8
Uncorrected Ubar = 10.0015, pressure gradient = 0.0283634
Rey = 0.846556, uTau = 0.327506, nut+ = 0, nuEff+ = 1, y+ = 0.920085, u+ = 0.920085, k+ = 3.43393e-09, epsilon+ = 1.07148e-09, omega+ = 3.46697
ExecutionTime = 0.07906 s  ClockTime = 0 s

Time = 61s

DICPCG:  Solving for Ux, Initial residual = 0.00303112, Final residual = 2.09905e-07, No Iterations 3
DICPCG:  Solving for Uy, Initial residual = 0, Final residual = 0, No Iterations 0
smoothSolver:  Solving for epsilon, Initial residual = 0.0295516, Final residual = 5.72713e-07, No Iterations 7
smoothSolver:  Solving for k, Initial residual = 0.00479501, Final residual = 6.30774e-07, No Iterations 8
Uncorrected Ubar = 9.99816, pressure gradient = 0.0439278
Rey = 0.840159, uTau = 0.326266, nut+ = 0, nuEff+ = 1, y+ = 0.916602, u+ = 0.916602, k+ = 3.55644e-09, epsilon+ = 1.0928e-09, omega+ = 3.41416
ExecutionTime = 0.080174 s  ClockTime = 0 s

Time = 62s

DICPCG:  Solving for Ux, Initial residual = 0.00300754, Final residual = 2.82058e-07, No Iterations 3
DICPCG:  Solving for Uy, Initial residual = 0, Final residual = 0, No Iterations 0
smoothSolver:  Solving for epsilon, Initial residual = 0.03045, Final residual = 7.86195e-07, No Iterations 7
smoothSolver:  Solving for k, Initial residual = 0.00523034, Final residual = 7.33049e-07, No Iterations 8
Uncorrected Ubar = 10.0013, pressure gradient = 0.0326936
Rey = 0.823081, uTau = 0.322933, nut+ = 0, nuEff+ = 1, y+ = 0.907238, u+ = 0.907238, k+ = 3.71178e-09, epsilon+ = 1.13711e-09, omega+ = 3.4039
ExecutionTime = 0.081895 s  ClockTime = 0 s

Time = 63s

DICPCG:  Solving for Ux, Initial residual = 0.00292933, Final residual = 2.36465e-07, No Iterations 3
DICPCG:  Solving for Uy, Initial residual = 0, Final residual = 0, No Iterations 0
smoothSolver:  Solving for epsilon, Initial residual = 0.028282, Final residual = 8.54321e-07, No Iterations 7
smoothSolver:  Solving for k, Initial residual = 0.00531988, Final residual = 7.96256e-07, No Iterations 8
Uncorrected Ubar = 9.9983, pressure gradient = 0.0475915
Rey = 0.816721, uTau = 0.321683, nut+ = 0, nuEff+ = 1, y+ = 0.903726, u+ = 0.903726, k+ = 3.80648e-09, epsilon+ = 1.14735e-09, omega+ = 3.34912
ExecutionTime = 0.083651 s  ClockTime = 0 s

Time = 64s

DICPCG:  Solving for Ux, Initial residual = 0.00290558, Final residual = 2.99859e-07, No Iterations 3
DICPCG:  Solving for Uy, Initial residual = 0, Final residual = 0, No Iterations 0
smoothSolver:  Solving for epsilon, Initial residual = 0.0289613, Final residual = 3.34531e-07, No Iterations 8
smoothSolver:  Solving for k, Initial residual = 0.00575377, Final residual = 9.17178e-07, No Iterations 8
Uncorrected Ubar = 10.0011, pressure gradient = 0.0378022
Rey = 0.800903, uTau = 0.318553, nut+ = 0, nuEff+ = 1, y+ = 0.894932, u+ = 0.894932, k+ = 3.93262e-09, epsilon+ = 1.17954e-09, omega+ = 3.33264
ExecutionTime = 0.084845 s  ClockTime = 0 s

Time = 65s

DICPCG:  Solving for Ux, Initial residual = 0.00283272, Final residual = 2.61282e-07, No Iterations 3
DICPCG:  Solving for Uy, Initial residual = 0, Final residual = 0, No Iterations 0
smoothSolver:  Solving for epsilon, Initial residual = 0.0260009, Final residual = 3.54055e-07, No Iterations 8
smoothSolver:  Solving for k, Initial residual = 0.00583949, Final residual = 3.57603e-07, No Iterations 9
Uncorrected Ubar = 9.99846, pressure gradient = 0.0519581
Rey = 0.794506, uTau = 0.317278, nut+ = 0, nuEff+ = 1, y+ = 0.891351, u+ = 0.891351, k+ = 4.00033e-09, epsilon+ = 1.1798e-09, omega+ = 3.27696
ExecutionTime = 0.085974 s  ClockTime = 0 s

Time = 66s

DICPCG:  Solving for Ux, Initial residual = 0.0028076, Final residual = 3.16494e-07, No Iterations 3
DICPCG:  Solving for Uy, Initial residual = 0, Final residual = 0, No Iterations 0
smoothSolver:  Solving for epsilon, Initial residual = 0.0260303, Final residual = 4.38798e-07, No Iterations 8
smoothSolver:  Solving for k, Initial residual = 0.00626704, Final residual = 4.09177e-07, No Iterations 9
Uncorrected Ubar = 10.0009, pressure gradient = 0.043748
Rey = 0.779912, uTau = 0.31435, nut+ = 0, nuEff+ = 1, y+ = 0.883126, u+ = 0.883126, k+ = 4.09718e-09, epsilon+ = 1.20019e-09, omega+ = 3.25479
ExecutionTime = 0.087095 s  ClockTime = 0 s

Time = 67s

DICPCG:  Solving for Ux, Initial residual = 0.00274061, Final residual = 2.82073e-07, No Iterations 3
DICPCG:  Solving for Uy, Initial residual = 0, Final residual = 0, No Iterations 0
smoothSolver:  Solving for epsilon, Initial residual = 0.0229607, Final residual = 4.46289e-07, No Iterations 8
smoothSolver:  Solving for k, Initial residual = 0.00644217, Final residual = 4.4866e-07, No Iterations 9
Uncorrected Ubar = 9.99859, pressure gradient = 0.0573667
Rey = 0.773495, uTau = 0.313055, nut+ = 0, nuEff+ = 1, y+ = 0.879486, u+ = 0.879486, k+ = 4.13967e-09, epsilon+ = 1.1917e-09, omega+ = 3.19859
ExecutionTime = 0.088228 s  ClockTime = 0 s

Time = 68s

DICPCG:  Solving for Ux, Initial residual = 0.00271484, Final residual = 3.33665e-07, No Iterations 3
DICPCG:  Solving for Uy, Initial residual = 0, Final residual = 0, No Iterations 0
smoothSolver:  Solving for epsilon, Initial residual = 0.0233432, Final residual = 5.33629e-07, No Iterations 8
smoothSolver:  Solving for k, Initial residual = 0.00699172, Final residual = 5.08753e-07, No Iterations 9
Uncorrected Ubar = 10.0006, pressure gradient = 0.051158
Rey = 0.760141, uTau = 0.31034, nut+ = 0, nuEff+ = 1, y+ = 0.871861, u+ = 0.871861, k+ = 4.20816e-09, epsilon+ = 1.20092e-09, omega+ = 3.17087
ExecutionTime = 0.089812 s  ClockTime = 0 s

Time = 69s

DICPCG:  Solving for Ux, Initial residual = 0.0026532, Final residual = 2.99362e-07, No Iterations 3
DICPCG:  Solving for Uy, Initial residual = 0, Final residual = 0, No Iterations 0
smoothSolver:  Solving for epsilon, Initial residual = 0.021406, Final residual = 5.5244e-07, No Iterations 8
smoothSolver:  Solving for k, Initial residual = 0.00729701, Final residual = 5.6123e-07, No Iterations 9
Uncorrected Ubar = 9.99869, pressure gradient = 0.0645652
Rey = 0.753699, uTau = 0.309022, nut+ = 0, nuEff+ = 1, y+ = 0.868158, u+ = 0.868158, k+ = 4.22815e-09, epsilon+ = 1.18514e-09, omega+ = 3.11442
ExecutionTime = 0.090996 s  ClockTime = 0 s

Time = 70s

DICPCG:  Solving for Ux, Initial residual = 0.00262682, Final residual = 3.47421e-07, No Iterations 3
DICPCG:  Solving for Uy, Initial residual = 0, Final residual = 0, No Iterations 0
smoothSolver:  Solving for epsilon, Initial residual = 0.022177, Final residual = 6.53942e-07, No Iterations 8
smoothSolver:  Solving for k, Initial residual = 0.00792477, Final residual = 6.38918e-07, No Iterations 9
Uncorrected Ubar = 10.0004, pressure gradient = 0.0606834
Rey = 0.741523, uTau = 0.306516, nut+ = 0, nuEff+ = 1, y+ = 0.861117, u+ = 0.861117, k+ = 4.27055e-09, epsilon+ = 1.18438e-09, omega+ = 3.08151
ExecutionTime = 0.092156 s  ClockTime = 0 s

Time = 71s

DICPCG:  Solving for Ux, Initial residual = 0.00257177, Final residual = 3.12736e-07, No Iterations 3
DICPCG:  Solving for Uy, Initial residual = 0, Final residual = 0, No Iterations 0
smoothSolver:  Solving for epsilon, Initial residual = 0.0209728, Final residual = 6.92895e-07, No Iterations 8
smoothSolver:  Solving for k, Initial residual = 0.00830253, Final residual = 7.12305e-07, No Iterations 9
Uncorrected Ubar = 9.99879, pressure gradient = 0.0739782
Rey = 0.734986, uTau = 0.305162, nut+ = 0, nuEff+ = 1, y+ = 0.857314, u+ = 0.857314, k+ = 4.27163e-09, epsilon+ = 1.16305e-09, omega+ = 3.02526
ExecutionTime = 0.093282 s  ClockTime = 0 s

Time = 72s

DICPCG:  Solving for Ux, Initial residual = 0.0025454, Final residual = 3.60527e-07, No Iterations 3
DICPCG:  Solving for Uy, Initial residual = 0, Final residual = 0, No Iterations 0
smoothSolver:  Solving for epsilon, Initial residual = 0.0218115, Final residual = 8.0893e-07, No Iterations 8
smoothSolver:  Solving for k, Initial residual = 0.00896417, Final residual = 8.13997e-07, No Iterations 9
Uncorrected Ubar = 10.0001, pressure gradient = 0.0724223
Rey = 0.723843, uTau = 0.30284, nut+ = 0, nuEff+ = 1, y+ = 0.85079, u+ = 0.85079, k+ = 4.29127e-09, epsilon+ = 1.15395e-09, omega+ = 2.98784
ExecutionTime = 0.09448 s  ClockTime = 0 s

Time = 73s

DICPCG:  Solving for Ux, Initial residual = 0.00249358, Final residual = 3.20116e-07, No Iterations 3
DICPCG:  Solving for Uy, Initial residual = 0, Final residual = 0, No Iterations 0
smoothSolver:  Solving for epsilon, Initial residual = 0.0208269, Final residual = 8.65256e-07, No Iterations 8
smoothSolver:  Solving for k, Initial residual = 0.00938199, Final residual = 9.14981e-07, No Iterations 9
Uncorrected Ubar = 9.99889, pressure gradient = 0.0856357
Rey = 0.717189, uTau = 0.301445, nut+ = 0, nuEff+ = 1, y+ = 0.84687, u+ = 0.84687, k+ = 4.277e-09, epsilon+ = 1.12861e-09, omega+ = 2.93198
ExecutionTime = 0.095628 s  ClockTime = 0 s

Time = 74s

DICPCG:  Solving for Ux, Initial residual = 0.00246456, Final residual = 3.57283e-07, No Iterations 3
DICPCG:  Solving for Uy, Initial residual = 0, Final residual = 0, No Iterations 0
smoothSolver:  Solving for epsilon, Initial residual = 0.0217495, Final residual = 9.86756e-07, No Iterations 8
smoothSolver:  Solving for k, Initial residual = 0.00997572, Final residual = 3.95232e-07, No Iterations 10
Uncorrected Ubar = 9.99992, pressure gradient = 0.0866732
Rey = 0.707022, uTau = 0.299301, nut+ = 0, nuEff+ = 1, y+ = 0.840846, u+ = 0.840846, k+ = 4.27704e-09, epsilon+ = 1.11261e-09, omega+ = 2.89039
ExecutionTime = 0.09679 s  ClockTime = 0 s

Time = 75s

DICPCG:  Solving for Ux, Initial residual = 0.00241851, Final residual = 3.07378e-07, No Iterations 3
DICPCG:  Solving for Uy, Initial residual = 0, Final residual = 0, No Iterations 0
smoothSolver:  Solving for epsilon, Initial residual = 0.0212428, Final residual = 3.36683e-07, No Iterations 9
smoothSolver:  Solving for k, Initial residual = 0.0104493, Final residual = 4.46554e-07, No Iterations 10
Uncorrected Ubar = 9.99894, pressure gradient = 0.100436
Rey = 0.700359, uTau = 0.297887, nut+ = 0, nuEff+ = 1, y+ = 0.836875, u+ = 0.836875, k+ = 4.2501e-09, epsilon+ = 1.08425e-09, omega+ = 2.83456
ExecutionTime = 0.098281 s  ClockTime = 0 s

Time = 76s

DICPCG:  Solving for Ux, Initial residual = 0.00239039, Final residual = 3.28633e-07, No Iterations 3
DICPCG:  Solving for Uy, Initial residual = 0, Final residual = 0, No Iterations 0
smoothSolver:  Solving for epsilon, Initial residual = 0.0231945, Final residual = 3.85304e-07, No Iterations 9
smoothSolver:  Solving for k, Initial residual = 0.0113102, Final residual = 5.08409e-07, No Iterations 10
Uncorrected Ubar = 9.99961, pressure gradient = 0.10585
Rey = 0.691355, uTau = 0.295966, nut+ = 0, nuEff+ = 1, y+ = 0.831478, u+ = 0.831478, k+ = 4.23225e-09, epsilon+ = 1.06203e-09, omega+ = 2.7882
ExecutionTime = 0.099973 s  ClockTime = 0 s

Time = 77s

DICPCG:  Solving for Ux, Initial residual = 0.00234882, Final residual = 2.84758e-07, No Iterations 3
DICPCG:  Solving for Uy, Initial residual = 0, Final residual = 0, No Iterations 0
smoothSolver:  Solving for epsilon, Initial residual = 0.023488, Final residual = 4.22764e-07, No Iterations 9
smoothSolver:  Solving for k, Initial residual = 0.0122066, Final residual = 5.79759e-07, No Iterations 10
Uncorrected Ubar = 9.99891, pressure gradient = 0.121723
Rey = 0.684778, uTau = 0.294555, nut+ = 0, nuEff+ = 1, y+ = 0.827513, u+ = 0.827513, k+ = 4.1952e-09, epsilon+ = 1.03158e-09, omega+ = 2.73217
ExecutionTime = 0.101304 s  ClockTime = 0 s

Time = 78s

DICPCG:  Solving for Ux, Initial residual = 0.0023217, Final residual = 3.05057e-07, No Iterations 3
DICPCG:  Solving for Uy, Initial residual = 0, Final residual = 0, No Iterations 0
smoothSolver:  Solving for epsilon, Initial residual = 0.0257119, Final residual = 4.92083e-07, No Iterations 9
smoothSolver:  Solving for k, Initial residual = 0.0133029, Final residual = 6.69892e-07, No Iterations 10
Uncorrected Ubar = 9.99928, pressure gradient = 0.133029
Rey = 0.676814, uTau = 0.292837, nut+ = 0, nuEff+ = 1, y+ = 0.822687, u+ = 0.822687, k+ = 4.16294e-09, epsilon+ = 1.00476e-09, omega+ = 2.68177
ExecutionTime = 0.102495 s  ClockTime = 0 s

Time = 79s

DICPCG:  Solving for Ux, Initial residual = 0.00229008, Final residual = 3.12602e-07, No Iterations 3
DICPCG:  Solving for Uy, Initial residual = 0, Final residual = 0, No Iterations 0
smoothSolver:  Solving for epsilon, Initial residual = 0.0258765, Final residual = 5.51887e-07, No Iterations 9
smoothSolver:  Solving for k, Initial residual = 0.0141966, Final residual = 7.77507e-07, No Iterations 10
Uncorrected Ubar = 9.99894, pressure gradient = 0.150906
Rey = 0.670039, uTau = 0.291368, nut+ = 0, nuEff+ = 1, y+ = 0.818559, u+ = 0.818559, k+ = 4.12033e-09, epsilon+ = 9.74103e-10, omega+ = 2.62682
ExecutionTime = 0.103678 s  ClockTime = 0 s

Time = 80s

DICPCG:  Solving for Ux, Initial residual = 0.00226481, Final residual = 3.45661e-07, No Iterations 3
DICPCG:  Solving for Uy, Initial residual = 0, Final residual = 0, No Iterations 0
smoothSolver:  Solving for epsilon, Initial residual = 0.0269533, Final residual = 6.33203e-07, No Iterations 9
smoothSolver:  Solving for k, Initial residual = 0.0150771, Final residual = 9.0266e-07, No Iterations 10
Uncorrected Ubar = 9.99913, pressure gradient = 0.166831
Rey = 0.662581, uTau = 0.289742, nut+ = 0, nuEff+ = 1, y+ = 0.813991, u+ = 0.813991, k+ = 4.0795e-09, epsilon+ = 9.45323e-10, omega+ = 2.57473
ExecutionTime = 0.105486 s  ClockTime = 0 s

Time = 81s

DICPCG:  Solving for Ux, Initial residual = 0.00223427, Final residual = 3.69272e-07, No Iterations 3
DICPCG:  Solving for Uy, Initial residual = 0, Final residual = 0, No Iterations 0
smoothSolver:  Solving for epsilon, Initial residual = 0.0260665, Final residual = 7.03842e-07, No Iterations 9
smoothSolver:  Solving for k, Initial residual = 0.0159443, Final residual = 4.20635e-07, No Iterations 11
Uncorrected Ubar = 9.99899, pressure gradient = 0.18723
Rey = 0.655705, uTau = 0.288234, nut+ = 0, nuEff+ = 1, y+ = 0.809756, u+ = 0.809756, k+ = 4.03323e-09, epsilon+ = 9.14958e-10, omega+ = 2.52061
ExecutionTime = 0.106914 s  ClockTime = 0 s

Time = 82s

DICPCG:  Solving for Ux, Initial residual = 0.002206, Final residual = 3.93444e-07, No Iterations 3
DICPCG:  Solving for Uy, Initial residual = 0, Final residual = 0, No Iterations 0
smoothSolver:  Solving for epsilon, Initial residual = 0.0262806, Final residual = 7.92275e-07, No Iterations 9
smoothSolver:  Solving for k, Initial residual = 0.0166233, Final residual = 4.96125e-07, No Iterations 11
Uncorrected Ubar = 9.99907, pressure gradient = 0.208097
Rey = 0.648599, uTau = 0.286668, nut+ = 0, nuEff+ = 1, y+ = 0.805356, u+ = 0.805356, k+ = 3.98702e-09, epsilon+ = 8.85473e-10, omega+ = 2.46766
ExecutionTime = 0.108071 s  ClockTime = 0 s

Time = 83s

DICPCG:  Solving for Ux, Initial residual = 0.00218183, Final residual = 4.25119e-07, No Iterations 3
DICPCG:  Solving for Uy, Initial residual = 0, Final residual = 0, No Iterations 0
smoothSolver:  Solving for epsilon, Initial residual = 0.025166, Final residual = 8.727e-07, No Iterations 9
smoothSolver:  Solving for k, Initial residual = 0.0171752, Final residual = 5.86372e-07, No Iterations 11
Uncorrected Ubar = 9.9991, pressure gradient = 0.230957
Rey = 0.641558, uTau = 0.285108, nut+ = 0, nuEff+ = 1, y+ = 0.800973, u+ = 0.800973, k+ = 3.93954e-09, epsilon+ = 8.56178e-10, omega+ = 2.41478
ExecutionTime = 0.109208 s  ClockTime = 0 s

Time = 84s

DICPCG:  Solving for Ux, Initial residual = 0.00215821, Final residual = 4.7059e-07, No Iterations 3
DICPCG:  Solving for Uy, Initial residual = 0, Final residual = 0, No Iterations 0
smoothSolver:  Solving for epsilon, Initial residual = 0.0249805, Final residual = 9.66794e-07, No Iterations 9
smoothSolver:  Solving for k, Initial residual = 0.0175999, Final residual = 6.904e-07, No Iterations 11
Uncorrected Ubar = 9.99923, pressure gradient = 0.253934
Rey = 0.63432, uTau = 0.283495, nut+ = 0, nuEff+ = 1, y+ = 0.796442, u+ = 0.796442, k+ = 3.89281e-09, epsilon+ = 8.2788e-10, omega+ = 2.36299
ExecutionTime = 0.110386 s  ClockTime = 0 s

Time = 85s

DICPCG:  Solving for Ux, Initial residual = 0.00213209, Final residual = 5.04281e-07, No Iterations 3
DICPCG:  Solving for Uy, Initial residual = 0, Final residual = 0, No Iterations 0
smoothSolver:  Solving for epsilon, Initial residual = 0.0243884, Final residual = 3.71942e-07, No Iterations 10
smoothSolver:  Solving for k, Initial residual = 0.0176448, Final residual = 8.18073e-07, No Iterations 11
Uncorrected Ubar = 9.99952, pressure gradient = 0.271161
Rey = 0.626542, uTau = 0.281752, nut+ = 0, nuEff+ = 1, y+ = 0.791544, u+ = 0.791544, k+ = 3.84932e-09, epsilon+ = 8.01509e-10, omega+ = 2.31357
ExecutionTime = 0.111586 s  ClockTime = 0 s

Time = 86s

DICPCG:  Solving for Ux, Initial residual = 0.00209859, Final residual = 5.25688e-07, No Iterations 3
DICPCG:  Solving for Uy, Initial residual = 0, Final residual = 0, No Iterations 0
smoothSolver:  Solving for epsilon, Initial residual = 0.0219939, Final residual = 4.04142e-07, No Iterations 10
smoothSolver:  Solving for k, Initial residual = 0.0171856, Final residual = 9.76099e-07, No Iterations 11
Uncorrected Ubar = 9.99975, pressure gradient = 0.282242
Rey = 0.618621, uTau = 0.279965, nut+ = 0, nuEff+ = 1, y+ = 0.786525, u+ = 0.786525, k+ = 3.80696e-09, epsilon+ = 7.76072e-10, omega+ = 2.26507
ExecutionTime = 0.112779 s  ClockTime = 0 s

Time = 87s

DICPCG:  Solving for Ux, Initial residual = 0.002058, Final residual = 5.06575e-07, No Iterations 3
DICPCG:  Solving for Uy, Initial residual = 0, Final residual = 0, No Iterations 0
smoothSolver:  Solving for epsilon, Initial residual = 0.0193992, Final residual = 4.22961e-07, No Iterations 10
smoothSolver:  Solving for k, Initial residual = 0.0161388, Final residual = 5.03508e-07, No Iterations 12
Uncorrected Ubar = 10, pressure gradient = 0.281788
Rey = 0.61053, uTau = 0.278128, nut+ = 0, nuEff+ = 1, y+ = 0.781364, u+ = 0.781364, k+ = 3.76623e-09, epsilon+ = 7.51683e-10, omega+ = 2.21761
ExecutionTime = 0.113933 s  ClockTime = 0 s

Time = 88s

DICPCG:  Solving for Ux, Initial residual = 0.00200761, Final residual = 4.60254e-07, No Iterations 3
DICPCG:  Solving for Uy, Initial residual = 0, Final residual = 0, No Iterations 0
smoothSolver:  Solving for epsilon, Initial residual = 0.0197039, Final residual = 4.17846e-07, No Iterations 10
smoothSolver:  Solving for k, Initial residual = 0.0149162, Final residual = 6.12388e-07, No Iterations 12
Uncorrected Ubar = 10, pressure gradient = 0.280122
Rey = 0.603016, uTau = 0.276411, nut+ = 0, nuEff+ = 1, y+ = 0.776541, u+ = 0.776541, k+ = 3.72278e-09, epsilon+ = 7.26582e-10, omega+ = 2.16858
ExecutionTime = 0.115078 s  ClockTime = 0 s

Time = 89s

DICPCG:  Solving for Ux, Initial residual = 0.00195493, Final residual = 4.06506e-07, No Iterations 3
DICPCG:  Solving for Uy, Initial residual = 0, Final residual = 0, No Iterations 0
smoothSolver:  Solving for epsilon, Initial residual = 0.0187059, Final residual = 3.84511e-07, No Iterations 10
smoothSolver:  Solving for k, Initial residual = 0.0143588, Final residual = 7.39144e-07, No Iterations 12
Uncorrected Ubar = 10, pressure gradient = 0.279094
Rey = 0.59596, uTau = 0.274789, nut+ = 0, nuEff+ = 1, y+ = 0.771984, u+ = 0.771984, k+ = 3.6776e-09, epsilon+ = 7.0119e-10, omega+ = 2.1185
ExecutionTime = 0.116457 s  ClockTime = 0 s

Time = 90s

DICPCG:  Solving for Ux, Initial residual = 0.00190075, Final residual = 3.94725e-07, No Iterations 3
DICPCG:  Solving for Uy, Initial residual = 0, Final residual = 0, No Iterations 0
smoothSolver:  Solving for epsilon, Initial residual = 0.0176556, Final residual = 8.93543e-07, No Iterations 9
smoothSolver:  Solving for k, Initial residual = 0.0133958, Final residual = 8.51726e-07, No Iterations 12
Uncorrected Ubar = 9.99994, pressure gradient = 0.284195
Rey = 0.589404, uTau = 0.273274, nut+ = 0, nuEff+ = 1, y+ = 0.767727, u+ = 0.767727, k+ = 3.63063e-09, epsilon+ = 6.75523e-10, omega+ = 2.06736
ExecutionTime = 0.11779 s  ClockTime = 0 s

Time = 91s

DICPCG:  Solving for Ux, Initial residual = 0.00184974, Final residual = 4.09107e-07, No Iterations 3
DICPCG:  Solving for Uy, Initial residual = 0, Final residual = 0, No Iterations 0
smoothSolver:  Solving for epsilon, Initial residual = 0.0165647, Final residual = 8.42294e-07, No Iterations 9
smoothSolver:  Solving for k, Initial residual = 0.012239, Final residual = 9.15435e-07, No Iterations 12
Uncorrected Ubar = 9.99995, pressure gradient = 0.288909
Rey = 0.582976, uTau = 0.271779, nut+ = 0, nuEff+ = 1, y+ = 0.763528, u+ = 0.763528, k+ = 3.58437e-09, epsilon+ = 6.5053e-10, omega+ = 2.01656
ExecutionTime = 0.118969 s  ClockTime = 0 s

Time = 92s

DICPCG:  Solving for Ux, Initial residual = 0.00179893, Final residual = 4.12981e-07, No Iterations 3
DICPCG:  Solving for Uy, Initial residual = 0, Final residual = 0, No Iterations 0
smoothSolver:  Solving for epsilon, Initial residual = 0.0160237, Final residual = 9.40761e-07, No Iterations 9
smoothSolver:  Solving for k, Initial residual = 0.011177, Final residual = 9.26147e-07, No Iterations 12
Uncorrected Ubar = 9.99991, pressure gradient = 0.297498
Rey = 0.576809, uTau = 0.270338, nut+ = 0, nuEff+ = 1, y+ = 0.759479, u+ = 0.759479, k+ = 3.53815e-09, epsilon+ = 6.25953e-10, omega+ = 1.96573
ExecutionTime = 0.120817 s  ClockTime = 0 s

Time = 93s

DICPCG:  Solving for Ux, Initial residual = 0.00175152, Final residual = 4.08024e-07, No Iterations 3
DICPCG:  Solving for Uy, Initial residual = 0, Final residual = 0, No Iterations 0
smoothSolver:  Solving for epsilon, Initial residual = 0.015848, Final residual = 4.60395e-07, No Iterations 10
smoothSolver:  Solving for k, Initial residual = 0.0102896, Final residual = 8.98791e-07, No Iterations 12
Uncorrected Ubar = 9.99993, pressure gradient = 0.304186
Rey = 0.570681, uTau = 0.268898, nut+ = 0, nuEff+ = 1, y+ = 0.755434, u+ = 0.755434, k+ = 3.49345e-09, epsilon+ = 6.02313e-10, omega+ = 1.91569
ExecutionTime = 0.122186 s  ClockTime = 0 s

Time = 94s

DICPCG:  Solving for Ux, Initial residual = 0.00170512, Final residual = 3.98391e-07, No Iterations 3
DICPCG:  Solving for Uy, Initial residual = 0, Final residual = 0, No Iterations 0
smoothSolver:  Solving for epsilon, Initial residual = 0.0161566, Final residual = 5.69769e-07, No Iterations 10
smoothSolver:  Solving for k, Initial residual = 0.0095675, Final residual = 8.47012e-07, No Iterations 12
Uncorrected Ubar = 9.99991, pressure gradient = 0.313693
Rey = 0.564758, uTau = 0.267499, nut+ = 0, nuEff+ = 1, y+ = 0.751504, u+ = 0.751504, k+ = 3.44937e-09, epsilon+ = 5.79276e-10, omega+ = 1.86596
ExecutionTime = 0.123363 s  ClockTime = 0 s

Time = 95s

DICPCG:  Solving for Ux, Initial residual = 0.00166166, Final residual = 3.86592e-07, No Iterations 3
DICPCG:  Solving for Uy, Initial residual = 0, Final residual = 0, No Iterations 0
smoothSolver:  Solving for epsilon, Initial residual = 0.0167393, Final residual = 6.93573e-07, No Iterations 10
smoothSolver:  Solving for k, Initial residual = 0.00904332, Final residual = 7.82974e-07, No Iterations 12
Uncorrected Ubar = 9.99993, pressure gradient = 0.320785
Rey = 0.558865, uTau = 0.2661, nut+ = 0, nuEff+ = 1, y+ = 0.747573, u+ = 0.747573, k+ = 3.40705e-09, epsilon+ = 5.57213e-10, omega+ = 1.81719
ExecutionTime = 0.124566 s  ClockTime = 0 s

Time = 96s

DICPCG:  Solving for Ux, Initial residual = 0.00161842, Final residual = 3.80503e-07, No Iterations 3
DICPCG:  Solving for Uy, Initial residual = 0, Final residual = 0, No Iterations 0
smoothSolver:  Solving for epsilon, Initial residual = 0.0175941, Final residual = 7.97339e-07, No Iterations 10
smoothSolver:  Solving for k, Initial residual = 0.00867068, Final residual = 7.13104e-07, No Iterations 12
Uncorrected Ubar = 9.99992, pressure gradient = 0.330214
Rey = 0.553156, uTau = 0.264737, nut+ = 0, nuEff+ = 1, y+ = 0.743745, u+ = 0.743745, k+ = 3.36562e-09, epsilon+ = 5.35815e-10, omega+ = 1.76892
ExecutionTime = 0.125762 s  ClockTime = 0 s

Time = 97s

DICPCG:  Solving for Ux, Initial residual = 0.00157784, Final residual = 3.74144e-07, No Iterations 3
DICPCG:  Solving for Uy, Initial residual = 0, Final residual = 0, No Iterations 0
smoothSolver:  Solving for epsilon, Initial residual = 0.0188493, Final residual = 8.85774e-07, No Iterations 10
smoothSolver:  Solving for k, Initial residual = 0.00837084, Final residual = 6.42789e-07, No Iterations 12
Uncorrected Ubar = 9.99994, pressure gradient = 0.337017
Rey = 0.547478, uTau = 0.263375, nut+ = 0, nuEff+ = 1, y+ = 0.739918, u+ = 0.739918, k+ = 3.32605e-09, epsilon+ = 5.1538e-10, omega+ = 1.72169
ExecutionTime = 0.126921 s  ClockTime = 0 s

Time = 98s

DICPCG:  Solving for Ux, Initial residual = 0.00153801, Final residual = 3.75668e-07, No Iterations 3
DICPCG:  Solving for Uy, Initial residual = 0, Final residual = 0, No Iterations 0
smoothSolver:  Solving for epsilon, Initial residual = 0.0204069, Final residual = 9.53458e-07, No Iterations 10
smoothSolver:  Solving for k, Initial residual = 0.0081268, Final residual = 5.73746e-07, No Iterations 12
Uncorrected Ubar = 9.99993, pressure gradient = 0.34586
Rey = 0.54197, uTau = 0.262047, nut+ = 0, nuEff+ = 1, y+ = 0.736186, u+ = 0.736186, k+ = 3.28753e-09, epsilon+ = 4.95634e-10, omega+ = 1.67513
ExecutionTime = 0.128085 s  ClockTime = 0 s

Time = 99s

DICPCG:  Solving for Ux, Initial residual = 0.00150083, Final residual = 3.85014e-07, No Iterations 3
DICPCG:  Solving for Uy, Initial residual = 0, Final residual = 0, No Iterations 0
smoothSolver:  Solving for epsilon, Initial residual = 0.0222727, Final residual = 9.91615e-07, No Iterations 10
smoothSolver:  Solving for k, Initial residual = 0.00794258, Final residual = 5.08341e-07, No Iterations 12
Uncorrected Ubar = 9.99995, pressure gradient = 0.351969
Rey = 0.536494, uTau = 0.26072, nut+ = 0, nuEff+ = 1, y+ = 0.732457, u+ = 0.732457, k+ = 3.2509e-09, epsilon+ = 4.76816e-10, omega+ = 1.62969
ExecutionTime = 0.12923 s  ClockTime = 0 s

Time = 100s

DICPCG:  Solving for Ux, Initial residual = 0.00146359, Final residual = 3.9744e-07, No Iterations 3
DICPCG:  Solving for Uy, Initial residual = 0, Final residual = 0, No Iterations 0
smoothSolver:  Solving for epsilon, Initial residual = 0.0243422, Final residual = 4.72239e-07, No Iterations 11
smoothSolver:  Solving for k, Initial residual = 0.00783323, Final residual = 8.99622e-07, No Iterations 11
Uncorrected Ubar = 9.99994, pressure gradient = 0.359902
Rey = 0.531176, uTau = 0.259424, nut+ = 0, nuEff+ = 1, y+ = 0.728818, u+ = 0.728818, k+ = 3.21541e-09, epsilon+ = 4.58683e-10, omega+ = 1.58502
ExecutionTime = 0.134097 s  ClockTime = 0 s

Time = 101s

DICPCG:  Solving for Ux, Initial residual = 0.00142907, Final residual = 4.13817e-07, No Iterations 3
DICPCG:  Solving for Uy, Initial residual = 0, Final residual = 0, No Iterations 0
smoothSolver:  Solving for epsilon, Initial residual = 0.0266481, Final residual = 9.98606e-07, No Iterations 10
smoothSolver:  Solving for k, Initial residual = 0.00781918, Final residual = 7.84004e-07, No Iterations 11
Uncorrected Ubar = 9.99996, pressure gradient = 0.365036
Rey = 0.52589, uTau = 0.25813, nut+ = 0, nuEff+ = 1, y+ = 0.725183, u+ = 0.725183, k+ = 3.1818e-09, epsilon+ = 4.41433e-10, omega+ = 1.54152
ExecutionTime = 0.135435 s  ClockTime = 0 s

Time = 102s

DICPCG:  Solving for Ux, Initial residual = 0.00139478, Final residual = 4.21625e-07, No Iterations 3
DICPCG:  Solving for Uy, Initial residual = 0, Final residual = 0, No Iterations 0
smoothSolver:  Solving for epsilon, Initial residual = 0.0290404, Final residual = 9.68265e-07, No Iterations 10
smoothSolver:  Solving for k, Initial residual = 0.00786539, Final residual = 6.76105e-07, No Iterations 11
Uncorrected Ubar = 9.99995, pressure gradient = 0.371833
Rey = 0.520752, uTau = 0.256866, nut+ = 0, nuEff+ = 1, y+ = 0.721632, u+ = 0.721632, k+ = 3.14937e-09, epsilon+ = 4.24847e-10, omega+ = 1.49888
ExecutionTime = 0.136726 s  ClockTime = 0 s

Time = 103s

DICPCG:  Solving for Ux, Initial residual = 0.00136357, Final residual = 4.33113e-07, No Iterations 3
DICPCG:  Solving for Uy, Initial residual = 0, Final residual = 0, No Iterations 0
smoothSolver:  Solving for epsilon, Initial residual = 0.0313568, Final residual = 9.182e-07, No Iterations 10
smoothSolver:  Solving for k, Initial residual = 0.00799542, Final residual = 5.76251e-07, No Iterations 11
Uncorrected Ubar = 9.99997, pressure gradient = 0.375797
Rey = 0.515647, uTau = 0.255604, nut+ = 0, nuEff+ = 1, y+ = 0.718086, u+ = 0.718086, k+ = 3.11878e-09, epsilon+ = 4.09089e-10, omega+ = 1.45744
ExecutionTime = 0.137901 s  ClockTime = 0 s

Time = 104s

DICPCG:  Solving for Ux, Initial residual = 0.00133186, Final residual = 4.38916e-07, No Iterations 3
DICPCG:  Solving for Uy, Initial residual = 0, Final residual = 0, No Iterations 0
smoothSolver:  Solving for epsilon, Initial residual = 0.0335611, Final residual = 8.55203e-07, No Iterations 10
smoothSolver:  Solving for k, Initial residual = 0.00817062, Final residual = 9.84923e-07, No Iterations 10
Uncorrected Ubar = 9.99996, pressure gradient = 0.381306
Rey = 0.51068, uTau = 0.25437, nut+ = 0, nuEff+ = 1, y+ = 0.714619, u+ = 0.714619, k+ = 3.08936e-09, epsilon+ = 3.93962e-10, omega+ = 1.41691
ExecutionTime = 0.139057 s  ClockTime = 0 s

Time = 105s

DICPCG:  Solving for Ux, Initial residual = 0.00130243, Final residual = 4.49649e-07, No Iterations 3
DICPCG:  Solving for Uy, Initial residual = 0, Final residual = 0, No Iterations 0
smoothSolver:  Solving for epsilon, Initial residual = 0.0354195, Final residual = 7.8082e-07, No Iterations 10
smoothSolver:  Solving for k, Initial residual = 0.00839367, Final residual = 8.09655e-07, No Iterations 10
Uncorrected Ubar = 9.99998, pressure gradient = 0.383969
Rey = 0.505747, uTau = 0.253138, nut+ = 0, nuEff+ = 1, y+ = 0.711159, u+ = 0.711159, k+ = 3.06172e-09, epsilon+ = 3.79602e-10, omega+ = 1.37759
ExecutionTime = 0.140586 s  ClockTime = 0 s

Time = 106s

DICPCG:  Solving for Ux, Initial residual = 0.00127456, Final residual = 4.51788e-07, No Iterations 3
DICPCG:  Solving for Uy, Initial residual = 0, Final residual = 0, No Iterations 0
smoothSolver:  Solving for epsilon, Initial residual = 0.0367955, Final residual = 7.00512e-07, No Iterations 10
smoothSolver:  Solving for k, Initial residual = 0.00868264, Final residual = 6.4381e-07, No Iterations 10
Uncorrected Ubar = 9.99997, pressure gradient = 0.388099
Rey = 0.500944, uTau = 0.251933, nut+ = 0, nuEff+ = 1, y+ = 0.707774, u+ = 0.707774, k+ = 3.03522e-09, epsilon+ = 3.65832e-10, omega+ = 1.33921
ExecutionTime = 0.141897 s  ClockTime = 0 s

Time = 107s

DICPCG:  Solving for Ux, Initial residual = 0.00124996, Final residual = 4.57387e-07, No Iterations 3
DICPCG:  Solving for Uy, Initial residual = 0, Final residual = 0, No Iterations 0
smoothSolver:  Solving for epsilon, Initial residual = 0.037534, Final residual = 6.1696e-07, No Iterations 10
smoothSolver:  Solving for k, Initial residual = 0.00902104, Final residual = 4.87815e-07, No Iterations 10
Uncorrected Ubar = 9.99999, pressure gradient = 0.389403
Rey = 0.496173, uTau = 0.250731, nut+ = 0, nuEff+ = 1, y+ = 0.704396, u+ = 0.704396, k+ = 3.01041e-09, epsilon+ = 3.52768e-10, omega+ = 1.30203
ExecutionTime = 0.143162 s  ClockTime = 0 s

Time = 108s

DICPCG:  Solving for Ux, Initial residual = 0.00122458, Final residual = 4.57658e-07, No Iterations 3
DICPCG:  Solving for Uy, Initial residual = 0, Final residual = 0, No Iterations 0
smoothSolver:  Solving for epsilon, Initial residual = 0.0373287, Final residual = 5.31693e-07, No Iterations 10
smoothSolver:  Solving for k, Initial residual = 0.00940978, Final residual = 7.39928e-07, No Iterations 9
Uncorrected Ubar = 9.99998, pressure gradient = 0.392148
Rey = 0.491527, uTau = 0.249554, nut+ = 0, nuEff+ = 1, y+ = 0.70109, u+ = 0.70109, k+ = 2.98669e-09, epsilon+ = 3.40247e-10, omega+ = 1.26579
ExecutionTime = 0.144326 s  ClockTime = 0 s

Time = 109s

DICPCG:  Solving for Ux, Initial residual = 0.00120151, Final residual = 4.62678e-07, No Iterations 3
DICPCG:  Solving for Uy, Initial residual = 0, Final residual = 0, No Iterations 0
smoothSolver:  Solving for epsilon, Initial residual = 0.0366401, Final residual = 9.42304e-07, No Iterations 9
smoothSolver:  Solving for k, Initial residual = 0.00983088, Final residual = 5.08938e-07, No Iterations 9
Uncorrected Ubar = 10, pressure gradient = 0.392131
Rey = 0.486913, uTau = 0.24838, nut+ = 0, nuEff+ = 1, y+ = 0.697791, u+ = 0.697791, k+ = 2.96458e-09, epsilon+ = 3.2837e-10, omega+ = 1.23071
ExecutionTime = 0.145457 s  ClockTime = 0 s

Time = 110s

DICPCG:  Solving for Ux, Initial residual = 0.00117767, Final residual = 4.62791e-07, No Iterations 3
DICPCG:  Solving for Uy, Initial residual = 0, Final residual = 0, No Iterations 0
smoothSolver:  Solving for epsilon, Initial residual = 0.0358868, Final residual = 8.06974e-07, No Iterations 9
smoothSolver:  Solving for k, Initial residual = 0.0102658, Final residual = 4.71531e-07, No Iterations 9
Uncorrected Ubar = 9.99999, pressure gradient = 0.393582
Rey = 0.482417, uTau = 0.247231, nut+ = 0, nuEff+ = 1, y+ = 0.694563, u+ = 0.694563, k+ = 2.9435e-09, epsilon+ = 3.1699e-10, omega+ = 1.19657
ExecutionTime = 0.146712 s  ClockTime = 0 s

Time = 111s

DICPCG:  Solving for Ux, Initial residual = 0.001155, Final residual = 4.64586e-07, No Iterations 3
DICPCG:  Solving for Uy, Initial residual = 0, Final residual = 0, No Iterations 0
smoothSolver:  Solving for epsilon, Initial residual = 0.0351336, Final residual = 6.93246e-07, No Iterations 9
smoothSolver:  Solving for k, Initial residual = 0.0107252, Final residual = 5.93681e-07, No Iterations 9
Uncorrected Ubar = 10, pressure gradient = 0.392364
Rey = 0.477952, uTau = 0.246084, nut+ = 0, nuEff+ = 1, y+ = 0.691341, u+ = 0.691341, k+ = 2.92393e-09, epsilon+ = 3.06193e-10, omega+ = 1.16355
ExecutionTime = 0.147876 s  ClockTime = 0 s

Time = 112s

DICPCG:  Solving for Ux, Initial residual = 0.00113349, Final residual = 4.60864e-07, No Iterations 3
DICPCG:  Solving for Uy, Initial residual = 0, Final residual = 0, No Iterations 0
smoothSolver:  Solving for epsilon, Initial residual = 0.0344541, Final residual = 5.97868e-07, No Iterations 9
smoothSolver:  Solving for k, Initial residual = 0.0111903, Final residual = 7.41984e-07, No Iterations 9
Uncorrected Ubar = 10, pressure gradient = 0.392635
Rey = 0.4736, uTau = 0.244961, nut+ = 0, nuEff+ = 1, y+ = 0.688186, u+ = 0.688186, k+ = 2.90533e-09, epsilon+ = 2.95848e-10, omega+ = 1.13144
ExecutionTime = 0.149012 s  ClockTime = 0 s

Time = 113s

DICPCG:  Solving for Ux, Initial residual = 0.00111353, Final residual = 4.6227e-07, No Iterations 3
DICPCG:  Solving for Uy, Initial residual = 0, Final residual = 0, No Iterations 0
smoothSolver:  Solving for epsilon, Initial residual = 0.0338842, Final residual = 5.17233e-07, No Iterations 9
smoothSolver:  Solving for k, Initial residual = 0.0116908, Final residual = 9.05393e-07, No Iterations 9
Uncorrected Ubar = 10, pressure gradient = 0.390292
Rey = 0.469278, uTau = 0.243841, nut+ = 0, nuEff+ = 1, y+ = 0.685039, u+ = 0.685039, k+ = 2.88816e-09, epsilon+ = 2.86031e-10, omega+ = 1.1004
ExecutionTime = 0.150138 s  ClockTime = 0 s

Time = 114s

DICPCG:  Solving for Ux, Initial residual = 0.00109341, Final residual = 4.61465e-07, No Iterations 3
DICPCG:  Solving for Uy, Initial residual = 0, Final residual = 0, No Iterations 0
smoothSolver:  Solving for epsilon, Initial residual = 0.0333381, Final residual = 9.38586e-07, No Iterations 8
smoothSolver:  Solving for k, Initial residual = 0.0121879, Final residual = 5.36985e-07, No Iterations 10
Uncorrected Ubar = 10, pressure gradient = 0.389446
Rey = 0.465062, uTau = 0.242743, nut+ = 0, nuEff+ = 1, y+ = 0.681955, u+ = 0.681955, k+ = 2.87189e-09, epsilon+ = 2.76622e-10, omega+ = 1.07023
ExecutionTime = 0.151302 s  ClockTime = 0 s

Time = 115s

DICPCG:  Solving for Ux, Initial residual = 0.00107495, Final residual = 4.62558e-07, No Iterations 3
DICPCG:  Solving for Uy, Initial residual = 0, Final residual = 0, No Iterations 0
smoothSolver:  Solving for epsilon, Initial residual = 0.0327047, Final residual = 8.15954e-07, No Iterations 8
smoothSolver:  Solving for k, Initial residual = 0.0126671, Final residual = 6.35507e-07, No Iterations 10
Uncorrected Ubar = 10, pressure gradient = 0.386087
Rey = 0.460875, uTau = 0.241648, nut+ = 0, nuEff+ = 1, y+ = 0.678878, u+ = 0.678878, k+ = 2.85695e-09, epsilon+ = 2.6769e-10, omega+ = 1.04108
ExecutionTime = 0.152461 s  ClockTime = 0 s

Time = 116s

DICPCG:  Solving for Ux, Initial residual = 0.00105553, Final residual = 4.5949e-07, No Iterations 3
DICPCG:  Solving for Uy, Initial residual = 0, Final residual = 0, No Iterations 0
smoothSolver:  Solving for epsilon, Initial residual = 0.0318536, Final residual = 7.13828e-07, No Iterations 8
smoothSolver:  Solving for k, Initial residual = 0.0131142, Final residual = 7.35197e-07, No Iterations 10
Uncorrected Ubar = 10, pressure gradient = 0.384368
Rey = 0.456792, uTau = 0.240575, nut+ = 0, nuEff+ = 1, y+ = 0.675864, u+ = 0.675864, k+ = 2.84285e-09, epsilon+ = 2.59121e-10, omega+ = 1.01276
ExecutionTime = 0.153602 s  ClockTime = 0 s

Time = 117s

DICPCG:  Solving for Ux, Initial residual = 0.00103819, Final residual = 4.58014e-07, No Iterations 3
DICPCG:  Solving for Uy, Initial residual = 0, Final residual = 0, No Iterations 0
smoothSolver:  Solving for epsilon, Initial residual = 0.0307409, Final residual = 6.27957e-07, No Iterations 8
smoothSolver:  Solving for k, Initial residual = 0.0134838, Final residual = 8.31512e-07, No Iterations 10
Uncorrected Ubar = 10, pressure gradient = 0.380381
Rey = 0.452738, uTau = 0.239505, nut+ = 0, nuEff+ = 1, y+ = 0.672858, u+ = 0.672858, k+ = 2.82999e-09, epsilon+ = 2.50981e-10, omega+ = 0.985401
ExecutionTime = 0.154732 s  ClockTime = 0 s

Time = 118s

DICPCG:  Solving for Ux, Initial residual = 0.0010195, Final residual = 4.52881e-07, No Iterations 3
DICPCG:  Solving for Uy, Initial residual = 0, Final residual = 0, No Iterations 0
smoothSolver:  Solving for epsilon, Initial residual = 0.0294929, Final residual = 5.57118e-07, No Iterations 8
smoothSolver:  Solving for k, Initial residual = 0.0138103, Final residual = 9.2624e-07, No Iterations 10
Uncorrected Ubar = 10, pressure gradient = 0.378226
Rey = 0.448784, uTau = 0.238457, nut+ = 0, nuEff+ = 1, y+ = 0.669913, u+ = 0.669913, k+ = 2.81788e-09, epsilon+ = 2.43165e-10, omega+ = 0.958815
ExecutionTime = 0.156027 s  ClockTime = 0 s

Time = 119s

DICPCG:  Solving for Ux, Initial residual = 0.00100411, Final residual = 4.5193e-07, No Iterations 3
DICPCG:  Solving for Uy, Initial residual = 0, Final residual = 0, No Iterations 0
smoothSolver:  Solving for epsilon, Initial residual = 0.0283491, Final residual = 4.96708e-07, No Iterations 8
smoothSolver:  Solving for k, Initial residual = 0.0141197, Final residual = 5.31148e-07, No Iterations 11
Uncorrected Ubar = 10, pressure gradient = 0.373937
Rey = 0.444856, uTau = 0.237411, nut+ = 0, nuEff+ = 1, y+ = 0.666975, u+ = 0.666975, k+ = 2.80696e-09, epsilon+ = 2.35734e-10, omega+ = 0.933135
[...]
smoothSolver:  Solving for k, Initial residual = 0.000106937, Final residual = 8.92254e-07, No Iterations 5
Uncorrected Ubar = 10, pressure gradient = 4.56062
Rey = 1.80873, uTau = 0.478716, nut+ = 0, nuEff+ = 1, y+ = 1.34489, u+ = 1.34489, k+ = 0.0360064, epsilon+ = 0.0107137, omega+ = 3.30612
ExecutionTime = 1.26919 s  ClockTime = 1 s

Time = 971s

DICPCG:  Solving for Ux, Initial residual = 7.37965e-06, Final residual = 1.98932e-07, No Iterations 1
DICPCG:  Solving for Uy, Initial residual = 0, Final residual = 0, No Iterations 0
smoothSolver:  Solving for epsilon, Initial residual = 1.72087e-05, Final residual = 7.48074e-07, No Iterations 2
smoothSolver:  Solving for k, Initial residual = 0.000105548, Final residual = 8.81387e-07, No Iterations 5
Uncorrected Ubar = 10, pressure gradient = 4.56014
Rey = 1.80869, uTau = 0.47871, nut+ = 0, nuEff+ = 1, y+ = 1.34487, u+ = 1.34487, k+ = 0.0360053, epsilon+ = 0.0107135, omega+ = 3.30617
ExecutionTime = 1.27031 s  ClockTime = 1 s

Time = 972s

DICPCG:  Solving for Ux, Initial residual = 7.37221e-06, Final residual = 1.92571e-07, No Iterations 1
DICPCG:  Solving for Uy, Initial residual = 0, Final residual = 0, No Iterations 0
smoothSolver:  Solving for epsilon, Initial residual = 1.70686e-05, Final residual = 7.39475e-07, No Iterations 2
smoothSolver:  Solving for k, Initial residual = 0.000104163, Final residual = 8.70611e-07, No Iterations 5
Uncorrected Ubar = 10, pressure gradient = 4.55967
Rey = 1.80865, uTau = 0.478705, nut+ = 0, nuEff+ = 1, y+ = 1.34486, u+ = 1.34486, k+ = 0.0360041, epsilon+ = 0.0107134, omega+ = 3.30621
ExecutionTime = 1.27141 s  ClockTime = 1 s

Time = 973s

DICPCG:  Solving for Ux, Initial residual = 7.36673e-06, Final residual = 1.86909e-07, No Iterations 1
DICPCG:  Solving for Uy, Initial residual = 0, Final residual = 0, No Iterations 0
smoothSolver:  Solving for epsilon, Initial residual = 1.69265e-05, Final residual = 7.30828e-07, No Iterations 2
smoothSolver:  Solving for k, Initial residual = 0.000102782, Final residual = 8.5992e-07, No Iterations 5
Uncorrected Ubar = 10, pressure gradient = 4.5592
Rey = 1.8086, uTau = 0.478699, nut+ = 0, nuEff+ = 1, y+ = 1.34484, u+ = 1.34484, k+ = 0.036003, epsilon+ = 0.0107132, omega+ = 3.30626
ExecutionTime = 1.27249 s  ClockTime = 1 s

Time = 974s

DICPCG:  Solving for Ux, Initial residual = 7.36223e-06, Final residual = 1.81338e-07, No Iterations 1
DICPCG:  Solving for Uy, Initial residual = 0, Final residual = 0, No Iterations 0
smoothSolver:  Solving for epsilon, Initial residual = 1.67823e-05, Final residual = 7.22136e-07, No Iterations 2
smoothSolver:  Solving for k, Initial residual = 0.000101404, Final residual = 8.49312e-07, No Iterations 5
Uncorrected Ubar = 10, pressure gradient = 4.55874
Rey = 1.80856, uTau = 0.478694, nut+ = 0, nuEff+ = 1, y+ = 1.34483, u+ = 1.34483, k+ = 0.0360018, epsilon+ = 0.010713, omega+ = 3.30631
ExecutionTime = 1.27356 s  ClockTime = 1 s

Time = 975s

DICPCG:  Solving for Ux, Initial residual = 7.35701e-06, Final residual = 1.75817e-07, No Iterations 1
DICPCG:  Solving for Uy, Initial residual = 0, Final residual = 0, No Iterations 0
smoothSolver:  Solving for epsilon, Initial residual = 1.6636e-05, Final residual = 7.13398e-07, No Iterations 2
smoothSolver:  Solving for k, Initial residual = 0.000100031, Final residual = 8.38783e-07, No Iterations 5
Uncorrected Ubar = 10, pressure gradient = 4.55829
Rey = 1.80852, uTau = 0.478688, nut+ = 0, nuEff+ = 1, y+ = 1.34481, u+ = 1.34481, k+ = 0.0360007, epsilon+ = 0.0107128, omega+ = 3.30635
ExecutionTime = 1.27534 s  ClockTime = 1 s

Time = 976s

DICPCG:  Solving for Ux, Initial residual = 7.35109e-06, Final residual = 1.70346e-07, No Iterations 1
DICPCG:  Solving for Uy, Initial residual = 0, Final residual = 0, No Iterations 0
smoothSolver:  Solving for epsilon, Initial residual = 1.64878e-05, Final residual = 7.04616e-07, No Iterations 2
smoothSolver:  Solving for k, Initial residual = 9.86612e-05, Final residual = 8.2833e-07, No Iterations 5
Uncorrected Ubar = 10, pressure gradient = 4.55784
Rey = 1.80848, uTau = 0.478683, nut+ = 0, nuEff+ = 1, y+ = 1.3448, u+ = 1.3448, k+ = 0.0359996, epsilon+ = 0.0107126, omega+ = 3.3064
ExecutionTime = 1.27812 s  ClockTime = 1 s

Time = 977s

DICPCG:  Solving for Ux, Initial residual = 7.34446e-06, Final residual = 1.64928e-07, No Iterations 1
DICPCG:  Solving for Uy, Initial residual = 0, Final residual = 0, No Iterations 0
smoothSolver:  Solving for epsilon, Initial residual = 1.63376e-05, Final residual = 6.95792e-07, No Iterations 2
smoothSolver:  Solving for k, Initial residual = 9.72959e-05, Final residual = 8.17952e-07, No Iterations 5
Uncorrected Ubar = 10, pressure gradient = 4.5574
Rey = 1.80844, uTau = 0.478677, nut+ = 0, nuEff+ = 1, y+ = 1.34478, u+ = 1.34478, k+ = 0.0359985, epsilon+ = 0.0107124, omega+ = 3.30645
ExecutionTime = 1.27929 s  ClockTime = 1 s

Time = 978s

DICPCG:  Solving for Ux, Initial residual = 7.33713e-06, Final residual = 1.5958e-07, No Iterations 1
DICPCG:  Solving for Uy, Initial residual = 0, Final residual = 0, No Iterations 0
smoothSolver:  Solving for epsilon, Initial residual = 1.61855e-05, Final residual = 6.86928e-07, No Iterations 2
smoothSolver:  Solving for k, Initial residual = 9.59348e-05, Final residual = 8.07645e-07, No Iterations 5
Uncorrected Ubar = 10, pressure gradient = 4.55697
Rey = 1.80839, uTau = 0.478672, nut+ = 0, nuEff+ = 1, y+ = 1.34477, u+ = 1.34477, k+ = 0.0359974, epsilon+ = 0.0107123, omega+ = 3.30649
ExecutionTime = 1.28095 s  ClockTime = 1 s

Time = 979s

DICPCG:  Solving for Ux, Initial residual = 7.33333e-06, Final residual = 1.54869e-07, No Iterations 1
DICPCG:  Solving for Uy, Initial residual = 0, Final residual = 0, No Iterations 0
smoothSolver:  Solving for epsilon, Initial residual = 1.60315e-05, Final residual = 6.78026e-07, No Iterations 2
smoothSolver:  Solving for k, Initial residual = 9.45782e-05, Final residual = 7.9741e-07, No Iterations 5
Uncorrected Ubar = 10, pressure gradient = 4.55654
Rey = 1.80835, uTau = 0.478666, nut+ = 0, nuEff+ = 1, y+ = 1.34475, u+ = 1.34475, k+ = 0.0359963, epsilon+ = 0.0107121, omega+ = 3.30654
ExecutionTime = 1.28228 s  ClockTime = 1 s

Time = 980s

DICPCG:  Solving for Ux, Initial residual = 7.33809e-06, Final residual = 1.50738e-07, No Iterations 1
DICPCG:  Solving for Uy, Initial residual = 0, Final residual = 0, No Iterations 0
smoothSolver:  Solving for epsilon, Initial residual = 1.58758e-05, Final residual = 6.69088e-07, No Iterations 2
smoothSolver:  Solving for k, Initial residual = 9.32261e-05, Final residual = 7.87243e-07, No Iterations 5
Uncorrected Ubar = 10, pressure gradient = 4.55612
Rey = 1.80831, uTau = 0.478661, nut+ = 0, nuEff+ = 1, y+ = 1.34473, u+ = 1.34473, k+ = 0.0359952, epsilon+ = 0.0107119, omega+ = 3.30658
ExecutionTime = 1.28339 s  ClockTime = 1 s

Time = 981s

DICPCG:  Solving for Ux, Initial residual = 7.34239e-06, Final residual = 1.46961e-07, No Iterations 1
DICPCG:  Solving for Uy, Initial residual = 0, Final residual = 0, No Iterations 0
smoothSolver:  Solving for epsilon, Initial residual = 1.57184e-05, Final residual = 6.60116e-07, No Iterations 2
smoothSolver:  Solving for k, Initial residual = 9.18787e-05, Final residual = 7.77144e-07, No Iterations 5
Uncorrected Ubar = 10, pressure gradient = 4.5557
Rey = 1.80827, uTau = 0.478655, nut+ = 0, nuEff+ = 1, y+ = 1.34472, u+ = 1.34472, k+ = 0.0359941, epsilon+ = 0.0107117, omega+ = 3.30663
ExecutionTime = 1.28446 s  ClockTime = 1 s

Time = 982s

DICPCG:  Solving for Ux, Initial residual = 7.34708e-06, Final residual = 1.43241e-07, No Iterations 1
DICPCG:  Solving for Uy, Initial residual = 0, Final residual = 0, No Iterations 0
smoothSolver:  Solving for epsilon, Initial residual = 1.55593e-05, Final residual = 6.51114e-07, No Iterations 2
smoothSolver:  Solving for k, Initial residual = 9.05361e-05, Final residual = 7.67112e-07, No Iterations 5
Uncorrected Ubar = 10, pressure gradient = 4.55529
Rey = 1.80823, uTau = 0.47865, nut+ = 0, nuEff+ = 1, y+ = 1.3447, u+ = 1.3447, k+ = 0.035993, epsilon+ = 0.0107116, omega+ = 3.30668
ExecutionTime = 1.28553 s  ClockTime = 1 s

Time = 983s

DICPCG:  Solving for Ux, Initial residual = 7.35366e-06, Final residual = 1.40598e-07, No Iterations 1
DICPCG:  Solving for Uy, Initial residual = 0, Final residual = 0, No Iterations 0
smoothSolver:  Solving for epsilon, Initial residual = 1.53986e-05, Final residual = 6.42084e-07, No Iterations 2
smoothSolver:  Solving for k, Initial residual = 8.91986e-05, Final residual = 7.57146e-07, No Iterations 5
Uncorrected Ubar = 10, pressure gradient = 4.55489
Rey = 1.80819, uTau = 0.478645, nut+ = 0, nuEff+ = 1, y+ = 1.34469, u+ = 1.34469, k+ = 0.035992, epsilon+ = 0.0107114, omega+ = 3.30672
ExecutionTime = 1.28661 s  ClockTime = 1 s

Time = 984s

DICPCG:  Solving for Ux, Initial residual = 7.35998e-06, Final residual = 1.38024e-07, No Iterations 1
DICPCG:  Solving for Uy, Initial residual = 0, Final residual = 0, No Iterations 0
smoothSolver:  Solving for epsilon, Initial residual = 1.52364e-05, Final residual = 6.33028e-07, No Iterations 2
smoothSolver:  Solving for k, Initial residual = 8.78662e-05, Final residual = 7.47246e-07, No Iterations 5
Uncorrected Ubar = 10, pressure gradient = 4.55449
Rey = 1.80815, uTau = 0.478639, nut+ = 0, nuEff+ = 1, y+ = 1.34467, u+ = 1.34467, k+ = 0.0359909, epsilon+ = 0.0107112, omega+ = 3.30676
ExecutionTime = 1.28773 s  ClockTime = 1 s

Time = 985s

DICPCG:  Solving for Ux, Initial residual = 7.36694e-06, Final residual = 1.36091e-07, No Iterations 1
DICPCG:  Solving for Uy, Initial residual = 0, Final residual = 0, No Iterations 0
smoothSolver:  Solving for epsilon, Initial residual = 1.50728e-05, Final residual = 6.2395e-07, No Iterations 2
smoothSolver:  Solving for k, Initial residual = 8.65391e-05, Final residual = 7.37409e-07, No Iterations 5
Uncorrected Ubar = 10, pressure gradient = 4.5541
Rey = 1.80811, uTau = 0.478634, nut+ = 0, nuEff+ = 1, y+ = 1.34466, u+ = 1.34466, k+ = 0.0359899, epsilon+ = 0.0107111, omega+ = 3.30681
ExecutionTime = 1.28881 s  ClockTime = 1 s

Time = 986s

DICPCG:  Solving for Ux, Initial residual = 7.37533e-06, Final residual = 1.34933e-07, No Iterations 1
DICPCG:  Solving for Uy, Initial residual = 0, Final residual = 0, No Iterations 0
smoothSolver:  Solving for epsilon, Initial residual = 1.49079e-05, Final residual = 6.14853e-07, No Iterations 2
smoothSolver:  Solving for k, Initial residual = 8.52175e-05, Final residual = 7.27636e-07, No Iterations 5
Uncorrected Ubar = 10, pressure gradient = 4.55371
Rey = 1.80807, uTau = 0.478629, nut+ = 0, nuEff+ = 1, y+ = 1.34465, u+ = 1.34465, k+ = 0.0359889, epsilon+ = 0.0107109, omega+ = 3.30685
ExecutionTime = 1.28988 s  ClockTime = 1 s

Time = 987s

DICPCG:  Solving for Ux, Initial residual = 7.38895e-06, Final residual = 1.34609e-07, No Iterations 1
DICPCG:  Solving for Uy, Initial residual = 0, Final residual = 0, No Iterations 0
smoothSolver:  Solving for epsilon, Initial residual = 1.47417e-05, Final residual = 6.0574e-07, No Iterations 2
smoothSolver:  Solving for k, Initial residual = 8.39015e-05, Final residual = 7.17927e-07, No Iterations 5
Uncorrected Ubar = 10, pressure gradient = 4.55334
Rey = 1.80803, uTau = 0.478624, nut+ = 0, nuEff+ = 1, y+ = 1.34463, u+ = 1.34463, k+ = 0.0359879, epsilon+ = 0.0107107, omega+ = 3.3069
ExecutionTime = 1.29175 s  ClockTime = 1 s

Time = 988s

DICPCG:  Solving for Ux, Initial residual = 7.40951e-06, Final residual = 1.35477e-07, No Iterations 1
DICPCG:  Solving for Uy, Initial residual = 0, Final residual = 0, No Iterations 0
smoothSolver:  Solving for epsilon, Initial residual = 1.45743e-05, Final residual = 5.96614e-07, No Iterations 2
smoothSolver:  Solving for k, Initial residual = 8.25913e-05, Final residual = 7.08281e-07, No Iterations 5
Uncorrected Ubar = 10, pressure gradient = 4.55296
Rey = 1.80799, uTau = 0.478618, nut+ = 0, nuEff+ = 1, y+ = 1.34462, u+ = 1.34462, k+ = 0.0359869, epsilon+ = 0.0107106, omega+ = 3.30694
ExecutionTime = 1.29307 s  ClockTime = 1 s

Time = 989s

DICPCG:  Solving for Ux, Initial residual = 7.43306e-06, Final residual = 1.37545e-07, No Iterations 1
DICPCG:  Solving for Uy, Initial residual = 0, Final residual = 0, No Iterations 0
smoothSolver:  Solving for epsilon, Initial residual = 1.44058e-05, Final residual = 5.87478e-07, No Iterations 2
smoothSolver:  Solving for k, Initial residual = 8.12871e-05, Final residual = 6.98697e-07, No Iterations 5
Uncorrected Ubar = 10, pressure gradient = 4.55259
Rey = 1.80795, uTau = 0.478613, nut+ = 0, nuEff+ = 1, y+ = 1.3446, u+ = 1.3446, k+ = 0.0359859, epsilon+ = 0.0107104, omega+ = 3.30698
ExecutionTime = 1.29418 s  ClockTime = 1 s

Time = 990s

DICPCG:  Solving for Ux, Initial residual = 7.45846e-06, Final residual = 1.40222e-07, No Iterations 1
DICPCG:  Solving for Uy, Initial residual = 0, Final residual = 0, No Iterations 0
smoothSolver:  Solving for epsilon, Initial residual = 1.42364e-05, Final residual = 5.78336e-07, No Iterations 2
smoothSolver:  Solving for k, Initial residual = 7.9989e-05, Final residual = 6.89175e-07, No Iterations 5
Uncorrected Ubar = 10, pressure gradient = 4.55223
Rey = 1.80791, uTau = 0.478608, nut+ = 0, nuEff+ = 1, y+ = 1.34459, u+ = 1.34459, k+ = 0.0359849, epsilon+ = 0.0107103, omega+ = 3.30703
ExecutionTime = 1.29525 s  ClockTime = 1 s

Time = 991s

DICPCG:  Solving for Ux, Initial residual = 7.48332e-06, Final residual = 1.4289e-07, No Iterations 1
DICPCG:  Solving for Uy, Initial residual = 0, Final residual = 0, No Iterations 0
smoothSolver:  Solving for epsilon, Initial residual = 1.4066e-05, Final residual = 5.69191e-07, No Iterations 2
smoothSolver:  Solving for k, Initial residual = 7.86971e-05, Final residual = 6.79715e-07, No Iterations 5
Uncorrected Ubar = 10, pressure gradient = 4.55188
Rey = 1.80788, uTau = 0.478603, nut+ = 0, nuEff+ = 1, y+ = 1.34457, u+ = 1.34457, k+ = 0.0359839, epsilon+ = 0.0107101, omega+ = 3.30707
ExecutionTime = 1.29695 s  ClockTime = 1 s

Time = 992s

DICPCG:  Solving for Ux, Initial residual = 7.50721e-06, Final residual = 1.45549e-07, No Iterations 1
DICPCG:  Solving for Uy, Initial residual = 0, Final residual = 0, No Iterations 0
smoothSolver:  Solving for epsilon, Initial residual = 1.38947e-05, Final residual = 5.60045e-07, No Iterations 2
smoothSolver:  Solving for k, Initial residual = 7.74116e-05, Final residual = 6.70316e-07, No Iterations 5
Uncorrected Ubar = 10, pressure gradient = 4.55153
Rey = 1.80784, uTau = 0.478598, nut+ = 0, nuEff+ = 1, y+ = 1.34456, u+ = 1.34456, k+ = 0.035983, epsilon+ = 0.01071, omega+ = 3.30711
ExecutionTime = 1.29811 s  ClockTime = 1 s

Time = 993s

DICPCG:  Solving for Ux, Initial residual = 7.53015e-06, Final residual = 1.48227e-07, No Iterations 1
DICPCG:  Solving for Uy, Initial residual = 0, Final residual = 0, No Iterations 0
smoothSolver:  Solving for epsilon, Initial residual = 1.37227e-05, Final residual = 5.50903e-07, No Iterations 2
smoothSolver:  Solving for k, Initial residual = 7.61328e-05, Final residual = 6.60979e-07, No Iterations 5
Uncorrected Ubar = 10, pressure gradient = 4.55118
Rey = 1.8078, uTau = 0.478593, nut+ = 0, nuEff+ = 1, y+ = 1.34454, u+ = 1.34454, k+ = 0.035982, epsilon+ = 0.0107098, omega+ = 3.30715
ExecutionTime = 1.29919 s  ClockTime = 1 s

Time = 994s

DICPCG:  Solving for Ux, Initial residual = 7.55411e-06, Final residual = 1.50988e-07, No Iterations 1
DICPCG:  Solving for Uy, Initial residual = 0, Final residual = 0, No Iterations 0
smoothSolver:  Solving for epsilon, Initial residual = 1.35501e-05, Final residual = 5.41768e-07, No Iterations 2
smoothSolver:  Solving for k, Initial residual = 7.48606e-05, Final residual = 6.51703e-07, No Iterations 5
Uncorrected Ubar = 10, pressure gradient = 4.55084
Rey = 1.80776, uTau = 0.478588, nut+ = 0, nuEff+ = 1, y+ = 1.34453, u+ = 1.34453, k+ = 0.0359811, epsilon+ = 0.0107097, omega+ = 3.3072
ExecutionTime = 1.30033 s  ClockTime = 1 s

Time = 995s

DICPCG:  Solving for Ux, Initial residual = 7.57935e-06, Final residual = 1.53801e-07, No Iterations 1
DICPCG:  Solving for Uy, Initial residual = 0, Final residual = 0, No Iterations 0
smoothSolver:  Solving for epsilon, Initial residual = 1.33769e-05, Final residual = 5.32643e-07, No Iterations 2
smoothSolver:  Solving for k, Initial residual = 7.35952e-05, Final residual = 6.42488e-07, No Iterations 5
Uncorrected Ubar = 10, pressure gradient = 4.55051
Rey = 1.80772, uTau = 0.478583, nut+ = 0, nuEff+ = 1, y+ = 1.34452, u+ = 1.34452, k+ = 0.0359802, epsilon+ = 0.0107095, omega+ = 3.30724
ExecutionTime = 1.30144 s  ClockTime = 1 s

Time = 996s

DICPCG:  Solving for Ux, Initial residual = 7.60777e-06, Final residual = 1.56634e-07, No Iterations 1
DICPCG:  Solving for Uy, Initial residual = 0, Final residual = 0, No Iterations 0
smoothSolver:  Solving for epsilon, Initial residual = 1.32032e-05, Final residual = 5.2353e-07, No Iterations 2
smoothSolver:  Solving for k, Initial residual = 7.23369e-05, Final residual = 6.33334e-07, No Iterations 5
Uncorrected Ubar = 10, pressure gradient = 4.55018
Rey = 1.80769, uTau = 0.478578, nut+ = 0, nuEff+ = 1, y+ = 1.3445, u+ = 1.3445, k+ = 0.0359793, epsilon+ = 0.0107094, omega+ = 3.30728
ExecutionTime = 1.30253 s  ClockTime = 1 s

Time = 997s

DICPCG:  Solving for Ux, Initial residual = 7.63546e-06, Final residual = 1.5945e-07, No Iterations 1
DICPCG:  Solving for Uy, Initial residual = 0, Final residual = 0, No Iterations 0
smoothSolver:  Solving for epsilon, Initial residual = 1.30291e-05, Final residual = 5.14434e-07, No Iterations 2
smoothSolver:  Solving for k, Initial residual = 7.10857e-05, Final residual = 6.2424e-07, No Iterations 5
Uncorrected Ubar = 10, pressure gradient = 4.54986
Rey = 1.80765, uTau = 0.478573, nut+ = 0, nuEff+ = 1, y+ = 1.34449, u+ = 1.34449, k+ = 0.0359784, epsilon+ = 0.0107093, omega+ = 3.30732
ExecutionTime = 1.3036 s  ClockTime = 1 s

Time = 998s

DICPCG:  Solving for Ux, Initial residual = 7.66218e-06, Final residual = 1.62249e-07, No Iterations 1
DICPCG:  Solving for Uy, Initial residual = 0, Final residual = 0, No Iterations 0
smoothSolver:  Solving for epsilon, Initial residual = 1.28547e-05, Final residual = 5.05358e-07, No Iterations 2
smoothSolver:  Solving for k, Initial residual = 6.98417e-05, Final residual = 6.15206e-07, No Iterations 5
Uncorrected Ubar = 10, pressure gradient = 4.54954
Rey = 1.80761, uTau = 0.478568, nut+ = 0, nuEff+ = 1, y+ = 1.34447, u+ = 1.34447, k+ = 0.0359775, epsilon+ = 0.0107091, omega+ = 3.30736
ExecutionTime = 1.30486 s  ClockTime = 1 s

Time = 999s

DICPCG:  Solving for Ux, Initial residual = 7.68793e-06, Final residual = 1.65029e-07, No Iterations 1
DICPCG:  Solving for Uy, Initial residual = 0, Final residual = 0, No Iterations 0
smoothSolver:  Solving for epsilon, Initial residual = 1.268e-05, Final residual = 4.96304e-07, No Iterations 2
smoothSolver:  Solving for k, Initial residual = 6.86051e-05, Final residual = 6.06233e-07, No Iterations 5
Uncorrected Ubar = 10, pressure gradient = 4.54923
Rey = 1.80758, uTau = 0.478563, nut+ = 0, nuEff+ = 1, y+ = 1.34446, u+ = 1.34446, k+ = 0.0359766, epsilon+ = 0.010709, omega+ = 3.3074
ExecutionTime = 1.30596 s  ClockTime = 1 s

Time = 1000s

DICPCG:  Solving for Ux, Initial residual = 7.71273e-06, Final residual = 1.67818e-07, No Iterations 1
DICPCG:  Solving for Uy, Initial residual = 0, Final residual = 0, No Iterations 0
smoothSolver:  Solving for epsilon, Initial residual = 1.25053e-05, Final residual = 4.87276e-07, No Iterations 2
smoothSolver:  Solving for k, Initial residual = 6.73761e-05, Final residual = 5.9732e-07, No Iterations 5
Uncorrected Ubar = 10, pressure gradient = 4.54893
Rey = 1.80754, uTau = 0.478558, nut+ = 0, nuEff+ = 1, y+ = 1.34445, u+ = 1.34445, k+ = 0.0359757, epsilon+ = 0.0107089, omega+ = 3.30744
ExecutionTime = 1.31061 s  ClockTime = 1 s

End

