/home/as/openfoam/OpenFOAM-12/bin/foamRunTutorials: 104: blockMesh: not found
