/*---------------------------------------------------------------------------*\
  =========                 |
  \\      /  F ield         | OpenFOAM: The Open Source CFD Toolbox
   \\    /   O peration     | Website:  https://openfoam.org
    \\  /    A nd           | Version:  12
     \\/     M anipulation  |
\*---------------------------------------------------------------------------*/
Build  : 12-cc05c1b03c38
Exec   : foamRun
Date   : Oct 11 2024
Time   : 14:30:16
Host   : "DESKTOP-KBPC6IC"
PID    : 110800
I/O    : uncollated
Case   : /home/as/openfoam/OpenFOAM-12/tutorials/incompressibleFluid/windAroundBuildings
nProcs : 1
sigFpe : Enabling floating point exception trapping (FOAM_SIGFPE).
fileModificationChecking : Monitoring run-time modified files using timeStampMaster (fileModificationSkew 10)
allowSystemOperations : Allowing user-supplied system call operations

// * * * * * * * * * * * * * * * * * * * * * * * * * * * * * * * * * * * * * //
Create time

Create mesh for time = 0

Selecting solver incompressibleFluid
Selecting viscosity model constant
Selecting turbulence model type RAS
Selecting RAS turbulence model kEpsilon
RAS
{
    model           kEpsilon;
    turbulence      on;
    printCoeffs     on;
    Cmu             0.09;
    C1              1.44;
    C2              1.92;
    C3              0;
    sigmak          1;
    sigmaEps        1.3;
}

No MRF models present


SIMPLE: Convergence criteria found
        p: tolerance 0.0001
        U: tolerance 0.0001
        "(k|omega|epsilon)": tolerance 0.0001


SIMPLE: Operating solver in steady-state mode with 1 outer corrector
SIMPLE: Operating solver in SIMPLE mode



Starting time loop

Time = 1s

smoothSolver:  Solving for Ux, Initial residual = 1, Final residual = 0.00128693, No Iterations 1
smoothSolver:  Solving for Uy, Initial residual = 0, Final residual = 0, No Iterations 0
smoothSolver:  Solving for Uz, Initial residual = 0, Final residual = 0, No Iterations 0
GAMG:  Solving for p, Initial residual = 1, Final residual = 0.0716836, No Iterations 2
time step continuity errors : sum local = 0.0020481, global = -0.00151853, cumulative = -0.00151853
smoothSolver:  Solving for epsilon, Initial residual = 0.791656, Final residual = 0.0128514, No Iterations 2
smoothSolver:  Solving for k, Initial residual = 1, Final residual = 0.0171096, No Iterations 2
ExecutionTime = 0.310388 s  ClockTime = 3 s

Time = 2s

smoothSolver:  Solving for Ux, Initial residual = 0.474156, Final residual = 0.0262543, No Iterations 1
smoothSolver:  Solving for Uy, Initial residual = 0.46853, Final residual = 0.0166651, No Iterations 1
smoothSolver:  Solving for Uz, Initial residual = 0.431697, Final residual = 0.0142783, No Iterations 1
GAMG:  Solving for p, Initial residual = 0.394772, Final residual = 0.0212954, No Iterations 2
time step continuity errors : sum local = 0.00101352, global = -0.000490098, cumulative = -0.00200863
smoothSolver:  Solving for epsilon, Initial residual = 0.740399, Final residual = 0.011053, No Iterations 2
smoothSolver:  Solving for k, Initial residual = 0.775479, Final residual = 0.0595786, No Iterations 1
ExecutionTime = 0.330033 s  ClockTime = 3 s

Time = 3s

smoothSolver:  Solving for Ux, Initial residual = 0.841023, Final residual = 0.0256519, No Iterations 1
smoothSolver:  Solving for Uy, Initial residual = 0.711783, Final residual = 0.0256295, No Iterations 1
smoothSolver:  Solving for Uz, Initial residual = 0.566501, Final residual = 0.0208301, No Iterations 1
GAMG:  Solving for p, Initial residual = 0.0237158, Final residual = 0.000947078, No Iterations 2
time step continuity errors : sum local = 0.000289019, global = 8.52361e-05, cumulative = -0.0019234
smoothSolver:  Solving for epsilon, Initial residual = 0.672948, Final residual = 0.0392904, No Iterations 1
smoothSolver:  Solving for k, Initial residual = 0.501593, Final residual = 0.0319005, No Iterations 1
ExecutionTime = 0.349502 s  ClockTime = 3 s

Time = 4s

smoothSolver:  Solving for Ux, Initial residual = 0.842513, Final residual = 0.0255618, No Iterations 1
smoothSolver:  Solving for Uy, Initial residual = 0.3276, Final residual = 0.0105852, No Iterations 1
smoothSolver:  Solving for Uz, Initial residual = 0.374454, Final residual = 0.010048, No Iterations 1
GAMG:  Solving for p, Initial residual = 0.0798786, Final residual = 0.00335279, No Iterations 2
time step continuity errors : sum local = 0.000739894, global = 8.47034e-05, cumulative = -0.00183869
smoothSolver:  Solving for epsilon, Initial residual = 0.531655, Final residual = 0.0316863, No Iterations 1
smoothSolver:  Solving for k, Initial residual = 0.371291, Final residual = 0.0248533, No Iterations 1
ExecutionTime = 0.369135 s  ClockTime = 3 s

Time = 5s

smoothSolver:  Solving for Ux, Initial residual = 0.458428, Final residual = 0.0138302, No Iterations 1
smoothSolver:  Solving for Uy, Initial residual = 0.774797, Final residual = 0.0282141, No Iterations 1
smoothSolver:  Solving for Uz, Initial residual = 0.652863, Final residual = 0.0219769, No Iterations 1
GAMG:  Solving for p, Initial residual = 0.166996, Final residual = 0.00709923, No Iterations 2
time step continuity errors : sum local = 0.000431198, global = 0.000179182, cumulative = -0.00165951
smoothSolver:  Solving for epsilon, Initial residual = 0.504861, Final residual = 0.0213355, No Iterations 1
smoothSolver:  Solving for k, Initial residual = 0.242777, Final residual = 0.0167093, No Iterations 1
ExecutionTime = 0.388979 s  ClockTime = 3 s

Time = 6s

smoothSolver:  Solving for Ux, Initial residual = 0.824386, Final residual = 0.0270718, No Iterations 1
smoothSolver:  Solving for Uy, Initial residual = 0.297639, Final residual = 0.0107978, No Iterations 1
smoothSolver:  Solving for Uz, Initial residual = 0.513306, Final residual = 0.019045, No Iterations 1
GAMG:  Solving for p, Initial residual = 0.0472082, Final residual = 0.00279842, No Iterations 2
time step continuity errors : sum local = 0.0005168, global = -0.000285769, cumulative = -0.00194528
smoothSolver:  Solving for epsilon, Initial residual = 0.38423, Final residual = 0.0160034, No Iterations 1
smoothSolver:  Solving for k, Initial residual = 0.153971, Final residual = 0.010205, No Iterations 1
ExecutionTime = 0.408825 s  ClockTime = 3 s

Time = 7s

smoothSolver:  Solving for Ux, Initial residual = 0.636564, Final residual = 0.0223081, No Iterations 1
smoothSolver:  Solving for Uy, Initial residual = 0.213317, Final residual = 0.00856261, No Iterations 1
smoothSolver:  Solving for Uz, Initial residual = 0.202497, Final residual = 0.00614111, No Iterations 1
GAMG:  Solving for p, Initial residual = 0.0942563, Final residual = 0.00546467, No Iterations 2
time step continuity errors : sum local = 0.000653335, global = -0.000126897, cumulative = -0.00207218
smoothSolver:  Solving for epsilon, Initial residual = 0.284903, Final residual = 0.0095575, No Iterations 1
smoothSolver:  Solving for k, Initial residual = 0.0930786, Final residual = 0.00708662, No Iterations 1
ExecutionTime = 0.428599 s  ClockTime = 3 s

Time = 8s

smoothSolver:  Solving for Ux, Initial residual = 0.405212, Final residual = 0.0123037, No Iterations 1
smoothSolver:  Solving for Uy, Initial residual = 0.464745, Final residual = 0.0183322, No Iterations 1
smoothSolver:  Solving for Uz, Initial residual = 0.345049, Final residual = 0.0121716, No Iterations 1
GAMG:  Solving for p, Initial residual = 0.184696, Final residual = 0.00580132, No Iterations 2
time step continuity errors : sum local = 0.000287192, global = -0.000199321, cumulative = -0.0022715
smoothSolver:  Solving for epsilon, Initial residual = 0.209848, Final residual = 0.00652292, No Iterations 1
smoothSolver:  Solving for k, Initial residual = 0.0623634, Final residual = 0.00489432, No Iterations 1
ExecutionTime = 0.449 s  ClockTime = 3 s

Time = 9s

smoothSolver:  Solving for Ux, Initial residual = 0.74771, Final residual = 0.0257592, No Iterations 1
smoothSolver:  Solving for Uy, Initial residual = 0.395735, Final residual = 0.0142263, No Iterations 1
smoothSolver:  Solving for Uz, Initial residual = 0.516736, Final residual = 0.021115, No Iterations 1
GAMG:  Solving for p, Initial residual = 0.0794319, Final residual = 0.00417359, No Iterations 2
time step continuity errors : sum local = 0.000474999, global = 0.000305161, cumulative = -0.00196634
smoothSolver:  Solving for epsilon, Initial residual = 0.173984, Final residual = 0.0047392, No Iterations 1
smoothSolver:  Solving for k, Initial residual = 0.0425782, Final residual = 0.00366679, No Iterations 1
ExecutionTime = 0.469583 s  ClockTime = 3 s

Time = 10s

smoothSolver:  Solving for Ux, Initial residual = 0.48427, Final residual = 0.0178216, No Iterations 1
smoothSolver:  Solving for Uy, Initial residual = 0.444958, Final residual = 0.0167909, No Iterations 1
smoothSolver:  Solving for Uz, Initial residual = 0.417423, Final residual = 0.0154798, No Iterations 1
GAMG:  Solving for p, Initial residual = 0.122663, Final residual = 0.00762312, No Iterations 2
time step continuity errors : sum local = 0.000538194, global = 0.00026561, cumulative = -0.00170073
smoothSolver:  Solving for epsilon, Initial residual = 0.147181, Final residual = 0.00365917, No Iterations 1
smoothSolver:  Solving for k, Initial residual = 0.030813, Final residual = 0.00254749, No Iterations 1
ExecutionTime = 0.489241 s  ClockTime = 3 s

Time = 11s

smoothSolver:  Solving for Ux, Initial residual = 0.372337, Final residual = 0.0111014, No Iterations 1
smoothSolver:  Solving for Uy, Initial residual = 0.388118, Final residual = 0.0144632, No Iterations 1
smoothSolver:  Solving for Uz, Initial residual = 0.250522, Final residual = 0.00788213, No Iterations 1
GAMG:  Solving for p, Initial residual = 0.260412, Final residual = 0.00735884, No Iterations 2
time step continuity errors : sum local = 0.000228603, global = 6.06915e-05, cumulative = -0.00164004
smoothSolver:  Solving for epsilon, Initial residual = 0.13206, Final residual = 0.00303359, No Iterations 1
smoothSolver:  Solving for k, Initial residual = 0.0212005, Final residual = 0.00193689, No Iterations 1
ExecutionTime = 0.509414 s  ClockTime = 3 s

Time = 12s

smoothSolver:  Solving for Ux, Initial residual = 0.628842, Final residual = 0.0206008, No Iterations 1
smoothSolver:  Solving for Uy, Initial residual = 0.169218, Final residual = 0.0056173, No Iterations 1
smoothSolver:  Solving for Uz, Initial residual = 0.158749, Final residual = 0.00546127, No Iterations 1
GAMG:  Solving for p, Initial residual = 0.116062, Final residual = 0.00426723, No Iterations 2
time step continuity errors : sum local = 0.0002955, global = -0.000122314, cumulative = -0.00176235
smoothSolver:  Solving for epsilon, Initial residual = 0.121232, Final residual = 0.00255549, No Iterations 1
smoothSolver:  Solving for k, Initial residual = 0.0162381, Final residual = 0.00147298, No Iterations 1
ExecutionTime = 0.529208 s  ClockTime = 3 s

Time = 13s

smoothSolver:  Solving for Ux, Initial residual = 0.425548, Final residual = 0.0156922, No Iterations 1
smoothSolver:  Solving for Uy, Initial residual = 0.337267, Final residual = 0.0127773, No Iterations 1
smoothSolver:  Solving for Uz, Initial residual = 0.211575, Final residual = 0.00710583, No Iterations 1
GAMG:  Solving for p, Initial residual = 0.151164, Final residual = 0.00787091, No Iterations 2
time step continuity errors : sum local = 0.000374249, global = -0.000242827, cumulative = -0.00200518
smoothSolver:  Solving for epsilon, Initial residual = 0.113434, Final residual = 0.00216843, No Iterations 1
smoothSolver:  Solving for k, Initial residual = 0.0120372, Final residual = 0.00115886, No Iterations 1
ExecutionTime = 0.549119 s  ClockTime = 3 s

Time = 14s

smoothSolver:  Solving for Ux, Initial residual = 0.326631, Final residual = 0.00933802, No Iterations 1
smoothSolver:  Solving for Uy, Initial residual = 0.544016, Final residual = 0.02035, No Iterations 1
smoothSolver:  Solving for Uz, Initial residual = 0.392267, Final residual = 0.0133658, No Iterations 1
GAMG:  Solving for p, Initial residual = 0.428547, Final residual = 0.018292, No Iterations 2
time step continuity errors : sum local = 0.000302953, global = 2.72769e-05, cumulative = -0.0019779
smoothSolver:  Solving for epsilon, Initial residual = 0.106145, Final residual = 0.00187779, No Iterations 1
smoothSolver:  Solving for k, Initial residual = 0.0092776, Final residual = 0.000152158, No Iterations 2
ExecutionTime = 0.569171 s  ClockTime = 3 s

Time = 15s

smoothSolver:  Solving for Ux, Initial residual = 0.507058, Final residual = 0.0154203, No Iterations 1
smoothSolver:  Solving for Uy, Initial residual = 0.379518, Final residual = 0.0131565, No Iterations 1
smoothSolver:  Solving for Uz, Initial residual = 0.394368, Final residual = 0.0129362, No Iterations 1
GAMG:  Solving for p, Initial residual = 0.161142, Final residual = 0.00280716, No Iterations 2
time step continuity errors : sum local = 0.000120275, global = 7.78967e-05, cumulative = -0.0019
smoothSolver:  Solving for epsilon, Initial residual = 0.100394, Final residual = 0.00168013, No Iterations 1
smoothSolver:  Solving for k, Initial residual = 0.00611827, Final residual = 0.000103752, No Iterations 2
ExecutionTime = 0.589205 s  ClockTime = 3 s

Time = 16s

smoothSolver:  Solving for Ux, Initial residual = 0.421169, Final residual = 0.0146178, No Iterations 1
smoothSolver:  Solving for Uy, Initial residual = 0.370895, Final residual = 0.0132674, No Iterations 1
smoothSolver:  Solving for Uz, Initial residual = 0.328826, Final residual = 0.0111418, No Iterations 1
GAMG:  Solving for p, Initial residual = 0.164277, Final residual = 0.00818687, No Iterations 2
time step continuity errors : sum local = 0.000292825, global = 0.00019747, cumulative = -0.00170253
smoothSolver:  Solving for epsilon, Initial residual = 0.0962975, Final residual = 0.00152658, No Iterations 1
smoothSolver:  Solving for k, Initial residual = 0.0050512, Final residual = 8.14185e-05, No Iterations 2
ExecutionTime = 0.608899 s  ClockTime = 3 s

Time = 17s

smoothSolver:  Solving for Ux, Initial residual = 0.287804, Final residual = 0.00766193, No Iterations 1
smoothSolver:  Solving for Uy, Initial residual = 0.415443, Final residual = 0.0153614, No Iterations 1
smoothSolver:  Solving for Uz, Initial residual = 0.291748, Final residual = 0.00893454, No Iterations 1
GAMG:  Solving for p, Initial residual = 0.559682, Final residual = 0.0291066, No Iterations 2
time step continuity errors : sum local = 0.000296535, global = -3.11327e-05, cumulative = -0.00173367
smoothSolver:  Solving for epsilon, Initial residual = 0.0936265, Final residual = 0.00141321, No Iterations 1
smoothSolver:  Solving for k, Initial residual = 0.00415192, Final residual = 6.42455e-05, No Iterations 2
ExecutionTime = 0.629561 s  ClockTime = 3 s

Time = 18s

smoothSolver:  Solving for Ux, Initial residual = 0.424265, Final residual = 0.0109138, No Iterations 1
smoothSolver:  Solving for Uy, Initial residual = 0.255739, Final residual = 0.00881851, No Iterations 1
smoothSolver:  Solving for Uz, Initial residual = 0.273626, Final residual = 0.00816648, No Iterations 1
GAMG:  Solving for p, Initial residual = 0.228718, Final residual = 0.00740726, No Iterations 2
time step continuity errors : sum local = 0.000187382, global = -4.64164e-05, cumulative = -0.00178008
smoothSolver:  Solving for epsilon, Initial residual = 0.0921396, Final residual = 0.00135413, No Iterations 1
smoothSolver:  Solving for k, Initial residual = 0.00383757, Final residual = 5.45392e-05, No Iterations 2
ExecutionTime = 0.649508 s  ClockTime = 3 s

Time = 19s

smoothSolver:  Solving for Ux, Initial residual = 0.409926, Final residual = 0.0123819, No Iterations 1
smoothSolver:  Solving for Uy, Initial residual = 0.303989, Final residual = 0.00935991, No Iterations 1
smoothSolver:  Solving for Uz, Initial residual = 0.269886, Final residual = 0.00739671, No Iterations 1
GAMG:  Solving for p, Initial residual = 0.175411, Final residual = 0.00764121, No Iterations 2
time step continuity errors : sum local = 0.000207623, global = -0.000122113, cumulative = -0.0019022
smoothSolver:  Solving for epsilon, Initial residual = 0.0913088, Final residual = 0.00130379, No Iterations 1
smoothSolver:  Solving for k, Initial residual = 0.00371902, Final residual = 0.000358459, No Iterations 1
ExecutionTime = 0.669371 s  ClockTime = 3 s

Time = 20s

smoothSolver:  Solving for Ux, Initial residual = 0.269838, Final residual = 0.00768437, No Iterations 1
smoothSolver:  Solving for Uy, Initial residual = 0.533789, Final residual = 0.0178124, No Iterations 1
smoothSolver:  Solving for Uz, Initial residual = 0.345719, Final residual = 0.00989499, No Iterations 1
GAMG:  Solving for p, Initial residual = 0.275177, Final residual = 0.0103203, No Iterations 2
time step continuity errors : sum local = 0.000150926, global = -8.39794e-05, cumulative = -0.00198617
smoothSolver:  Solving for epsilon, Initial residual = 0.0911388, Final residual = 0.00127488, No Iterations 1
smoothSolver:  Solving for k, Initial residual = 0.00378766, Final residual = 0.000342613, No Iterations 1
ExecutionTime = 0.689571 s  ClockTime = 3 s

Time = 21s

smoothSolver:  Solving for Ux, Initial residual = 0.342563, Final residual = 0.00722995, No Iterations 1
smoothSolver:  Solving for Uy, Initial residual = 0.54617, Final residual = 0.0173159, No Iterations 1
smoothSolver:  Solving for Uz, Initial residual = 0.348447, Final residual = 0.0100423, No Iterations 1
GAMG:  Solving for p, Initial residual = 0.373307, Final residual = 0.022218, No Iterations 2
time step continuity errors : sum local = 0.000246551, global = 9.36504e-05, cumulative = -0.00189252
smoothSolver:  Solving for epsilon, Initial residual = 0.0910788, Final residual = 0.00125916, No Iterations 1
smoothSolver:  Solving for k, Initial residual = 0.00369778, Final residual = 0.000326175, No Iterations 1
ExecutionTime = 0.709873 s  ClockTime = 3 s

Time = 22s

smoothSolver:  Solving for Ux, Initial residual = 0.394981, Final residual = 0.00944113, No Iterations 1
smoothSolver:  Solving for Uy, Initial residual = 0.350763, Final residual = 0.0104323, No Iterations 1
smoothSolver:  Solving for Uz, Initial residual = 0.299386, Final residual = 0.00867255, No Iterations 1
GAMG:  Solving for p, Initial residual = 0.225171, Final residual = 0.00485532, No Iterations 2
time step continuity errors : sum local = 8.75993e-05, global = -6.08555e-06, cumulative = -0.00189861
smoothSolver:  Solving for epsilon, Initial residual = 0.0909964, Final residual = 0.00125109, No Iterations 1
smoothSolver:  Solving for k, Initial residual = 0.00344992, Final residual = 0.000291099, No Iterations 1
ExecutionTime = 0.729701 s  ClockTime = 3 s

Time = 23s

smoothSolver:  Solving for Ux, Initial residual = 0.280672, Final residual = 0.008527, No Iterations 1
smoothSolver:  Solving for Uy, Initial residual = 0.367764, Final residual = 0.0123418, No Iterations 1
smoothSolver:  Solving for Uz, Initial residual = 0.292867, Final residual = 0.00824554, No Iterations 1
GAMG:  Solving for p, Initial residual = 0.200167, Final residual = 0.00888916, No Iterations 2
time step continuity errors : sum local = 0.000133263, global = 7.55209e-05, cumulative = -0.00182309
smoothSolver:  Solving for epsilon, Initial residual = 0.0908391, Final residual = 0.00124493, No Iterations 1
smoothSolver:  Solving for k, Initial residual = 0.00320774, Final residual = 0.000271902, No Iterations 1
ExecutionTime = 0.75022 s  ClockTime = 3 s

Time = 24s

smoothSolver:  Solving for Ux, Initial residual = 0.280489, Final residual = 0.00627395, No Iterations 1
smoothSolver:  Solving for Uy, Initial residual = 0.486775, Final residual = 0.0158227, No Iterations 1
smoothSolver:  Solving for Uz, Initial residual = 0.339802, Final residual = 0.00911056, No Iterations 1
GAMG:  Solving for p, Initial residual = 0.34977, Final residual = 0.0119093, No Iterations 2
time step continuity errors : sum local = 8.50127e-05, global = 3.3748e-05, cumulative = -0.00178934
smoothSolver:  Solving for epsilon, Initial residual = 0.0908044, Final residual = 0.00124009, No Iterations 1
smoothSolver:  Solving for k, Initial residual = 0.00295175, Final residual = 0.000242733, No Iterations 1
ExecutionTime = 0.769665 s  ClockTime = 3 s

Time = 25s

smoothSolver:  Solving for Ux, Initial residual = 0.350893, Final residual = 0.00640394, No Iterations 1
smoothSolver:  Solving for Uy, Initial residual = 0.453995, Final residual = 0.0131908, No Iterations 1
smoothSolver:  Solving for Uz, Initial residual = 0.326781, Final residual = 0.00854963, No Iterations 1
GAMG:  Solving for p, Initial residual = 0.370511, Final residual = 0.0175781, No Iterations 2
time step continuity errors : sum local = 0.00012373, global = -5.14717e-05, cumulative = -0.00184081
smoothSolver:  Solving for epsilon, Initial residual = 0.0907052, Final residual = 0.00123637, No Iterations 1
smoothSolver:  Solving for k, Initial residual = 0.00283016, Final residual = 0.000230791, No Iterations 1
ExecutionTime = 0.789512 s  ClockTime = 3 s

Time = 26s

smoothSolver:  Solving for Ux, Initial residual = 0.345873, Final residual = 0.00730979, No Iterations 1
smoothSolver:  Solving for Uy, Initial residual = 0.363057, Final residual = 0.0114358, No Iterations 1
smoothSolver:  Solving for Uz, Initial residual = 0.276643, Final residual = 0.00748946, No Iterations 1
GAMG:  Solving for p, Initial residual = 0.249657, Final residual = 0.0240393, No Iterations 1
time step continuity errors : sum local = 0.000241278, global = -4.54213e-06, cumulative = -0.00184535
smoothSolver:  Solving for epsilon, Initial residual = 0.0907071, Final residual = 0.00123449, No Iterations 1
smoothSolver:  Solving for k, Initial residual = 0.00272806, Final residual = 0.000226645, No Iterations 1
ExecutionTime = 0.808601 s  ClockTime = 3 s

Time = 27s

smoothSolver:  Solving for Ux, Initial residual = 0.23191, Final residual = 0.0062701, No Iterations 1
smoothSolver:  Solving for Uy, Initial residual = 0.293273, Final residual = 0.00957587, No Iterations 1
smoothSolver:  Solving for Uz, Initial residual = 0.204305, Final residual = 0.00582507, No Iterations 1
GAMG:  Solving for p, Initial residual = 0.232684, Final residual = 0.00823053, No Iterations 2
time step continuity errors : sum local = 7.0314e-05, global = -3.42445e-05, cumulative = -0.0018796
smoothSolver:  Solving for epsilon, Initial residual = 0.0907427, Final residual = 0.00122947, No Iterations 1
smoothSolver:  Solving for k, Initial residual = 0.00270541, Final residual = 0.000219338, No Iterations 1
ExecutionTime = 0.828538 s  ClockTime = 3 s

Time = 28s

smoothSolver:  Solving for Ux, Initial residual = 0.229224, Final residual = 0.00499264, No Iterations 1
smoothSolver:  Solving for Uy, Initial residual = 0.349534, Final residual = 0.0103024, No Iterations 1
smoothSolver:  Solving for Uz, Initial residual = 0.240169, Final residual = 0.00662871, No Iterations 1
GAMG:  Solving for p, Initial residual = 0.310783, Final residual = 0.0126551, No Iterations 2
time step continuity errors : sum local = 5.88594e-05, global = -2.79581e-05, cumulative = -0.00190756
smoothSolver:  Solving for epsilon, Initial residual = 0.0906812, Final residual = 0.00122126, No Iterations 1
smoothSolver:  Solving for k, Initial residual = 0.00271598, Final residual = 0.000211676, No Iterations 1
ExecutionTime = 0.848702 s  ClockTime = 3 s

Time = 29s

smoothSolver:  Solving for Ux, Initial residual = 0.302556, Final residual = 0.00510613, No Iterations 1
smoothSolver:  Solving for Uy, Initial residual = 0.506111, Final residual = 0.0149245, No Iterations 1
smoothSolver:  Solving for Uz, Initial residual = 0.279829, Final residual = 0.00715686, No Iterations 1
GAMG:  Solving for p, Initial residual = 0.450022, Final residual = 0.0213929, No Iterations 2
time step continuity errors : sum local = 6.75342e-05, global = 2.32206e-05, cumulative = -0.00188434
smoothSolver:  Solving for epsilon, Initial residual = 0.0906722, Final residual = 0.00121833, No Iterations 1
smoothSolver:  Solving for k, Initial residual = 0.00271419, Final residual = 0.000203353, No Iterations 1
ExecutionTime = 0.868896 s  ClockTime = 3 s

Time = 30s

smoothSolver:  Solving for Ux, Initial residual = 0.2924, Final residual = 0.00507524, No Iterations 1
smoothSolver:  Solving for Uy, Initial residual = 0.391739, Final residual = 0.0115573, No Iterations 1
smoothSolver:  Solving for Uz, Initial residual = 0.263462, Final residual = 0.00635865, No Iterations 1
GAMG:  Solving for p, Initial residual = 0.284992, Final residual = 0.0193322, No Iterations 1
time step continuity errors : sum local = 9.80544e-05, global = -1.40901e-05, cumulative = -0.00189843
smoothSolver:  Solving for epsilon, Initial residual = 0.0906966, Final residual = 0.00121792, No Iterations 1
smoothSolver:  Solving for k, Initial residual = 0.00271595, Final residual = 0.000203613, No Iterations 1
ExecutionTime = 0.888031 s  ClockTime = 3 s

Time = 31s

smoothSolver:  Solving for Ux, Initial residual = 0.209527, Final residual = 0.00464391, No Iterations 1
smoothSolver:  Solving for Uy, Initial residual = 0.26927, Final residual = 0.00898557, No Iterations 1
smoothSolver:  Solving for Uz, Initial residual = 0.204558, Final residual = 0.00513424, No Iterations 1
GAMG:  Solving for p, Initial residual = 0.259673, Final residual = 0.0250821, No Iterations 1
time step continuity errors : sum local = 0.000119255, global = 2.04575e-05, cumulative = -0.00187797
smoothSolver:  Solving for epsilon, Initial residual = 0.0906633, Final residual = 0.00121759, No Iterations 1
smoothSolver:  Solving for k, Initial residual = 0.00259258, Final residual = 0.000183088, No Iterations 1
ExecutionTime = 0.90751 s  ClockTime = 3 s

Time = 32s

smoothSolver:  Solving for Ux, Initial residual = 0.20056, Final residual = 0.00474907, No Iterations 1
smoothSolver:  Solving for Uy, Initial residual = 0.20551, Final residual = 0.00592501, No Iterations 1
smoothSolver:  Solving for Uz, Initial residual = 0.189905, Final residual = 0.00523779, No Iterations 1
GAMG:  Solving for p, Initial residual = 0.228094, Final residual = 0.00877228, No Iterations 2
time step continuity errors : sum local = 3.3015e-05, global = 1.199e-05, cumulative = -0.00186598
smoothSolver:  Solving for epsilon, Initial residual = 0.0906679, Final residual = 0.00121669, No Iterations 1
smoothSolver:  Solving for k, Initial residual = 0.00243769, Final residual = 0.000177785, No Iterations 1
ExecutionTime = 0.927284 s  ClockTime = 3 s

Time = 33s

smoothSolver:  Solving for Ux, Initial residual = 0.21315, Final residual = 0.00371783, No Iterations 1
smoothSolver:  Solving for Uy, Initial residual = 0.45125, Final residual = 0.0137017, No Iterations 1
smoothSolver:  Solving for Uz, Initial residual = 0.242967, Final residual = 0.0072481, No Iterations 1
GAMG:  Solving for p, Initial residual = 0.417187, Final residual = 0.0105446, No Iterations 2
time step continuity errors : sum local = 1.84238e-05, global = 3.74384e-06, cumulative = -0.00186224
smoothSolver:  Solving for epsilon, Initial residual = 0.0906446, Final residual = 0.00121481, No Iterations 1
smoothSolver:  Solving for k, Initial residual = 0.00229201, Final residual = 0.000171822, No Iterations 1
ExecutionTime = 0.947179 s  ClockTime = 3 s

Time = 34s

smoothSolver:  Solving for Ux, Initial residual = 0.226787, Final residual = 0.00338009, No Iterations 1
smoothSolver:  Solving for Uy, Initial residual = 0.504178, Final residual = 0.0153228, No Iterations 1
smoothSolver:  Solving for Uz, Initial residual = 0.234531, Final residual = 0.00601495, No Iterations 1
GAMG:  Solving for p, Initial residual = 0.41288, Final residual = 0.0129197, No Iterations 2
time step continuity errors : sum local = 2.21142e-05, global = -7.31183e-06, cumulative = -0.00186955
smoothSolver:  Solving for epsilon, Initial residual = 0.0906075, Final residual = 0.00121358, No Iterations 1
smoothSolver:  Solving for k, Initial residual = 0.00229276, Final residual = 0.000171685, No Iterations 1
ExecutionTime = 0.967435 s  ClockTime = 3 s

Time = 35s

smoothSolver:  Solving for Ux, Initial residual = 0.196697, Final residual = 0.0035776, No Iterations 1
smoothSolver:  Solving for Uy, Initial residual = 0.34958, Final residual = 0.0113095, No Iterations 1
smoothSolver:  Solving for Uz, Initial residual = 0.217357, Final residual = 0.00476202, No Iterations 1
GAMG:  Solving for p, Initial residual = 0.309667, Final residual = 0.0277612, No Iterations 1
time step continuity errors : sum local = 5.80699e-05, global = -5.37684e-06, cumulative = -0.00187492
smoothSolver:  Solving for epsilon, Initial residual = 0.0906042, Final residual = 0.0012135, No Iterations 1
smoothSolver:  Solving for k, Initial residual = 0.00232175, Final residual = 0.00016846, No Iterations 1
ExecutionTime = 0.987013 s  ClockTime = 4 s

Time = 36s

smoothSolver:  Solving for Ux, Initial residual = 0.133896, Final residual = 0.00317735, No Iterations 1
smoothSolver:  Solving for Uy, Initial residual = 0.244179, Final residual = 0.00778472, No Iterations 1
smoothSolver:  Solving for Uz, Initial residual = 0.201121, Final residual = 0.00470397, No Iterations 1
GAMG:  Solving for p, Initial residual = 0.301872, Final residual = 0.00665539, No Iterations 2
time step continuity errors : sum local = 1.21264e-05, global = -1.8657e-06, cumulative = -0.00187679
smoothSolver:  Solving for epsilon, Initial residual = 0.0905864, Final residual = 0.0012121, No Iterations 1
smoothSolver:  Solving for k, Initial residual = 0.00235927, Final residual = 0.000173259, No Iterations 1
ExecutionTime = 1.00679 s  ClockTime = 4 s

Time = 37s

smoothSolver:  Solving for Ux, Initial residual = 0.112216, Final residual = 0.00218625, No Iterations 1
smoothSolver:  Solving for Uy, Initial residual = 0.379735, Final residual = 0.0121862, No Iterations 1
smoothSolver:  Solving for Uz, Initial residual = 0.225483, Final residual = 0.00644097, No Iterations 1
GAMG:  Solving for p, Initial residual = 0.376981, Final residual = 0.00706003, No Iterations 2
time step continuity errors : sum local = 7.59967e-06, global = -7.08551e-07, cumulative = -0.0018775
smoothSolver:  Solving for epsilon, Initial residual = 0.0905992, Final residual = 0.00121326, No Iterations 1
smoothSolver:  Solving for k, Initial residual = 0.00238023, Final residual = 0.000172308, No Iterations 1
ExecutionTime = 1.02627 s  ClockTime = 4 s

Time = 38s

smoothSolver:  Solving for Ux, Initial residual = 0.117497, Final residual = 0.00195239, No Iterations 1
smoothSolver:  Solving for Uy, Initial residual = 0.506903, Final residual = 0.0164876, No Iterations 1
smoothSolver:  Solving for Uz, Initial residual = 0.183764, Final residual = 0.00584104, No Iterations 1
GAMG:  Solving for p, Initial residual = 0.521003, Final residual = 0.00984199, No Iterations 2
time step continuity errors : sum local = 5.70064e-06, global = 1.31415e-06, cumulative = -0.00187618
smoothSolver:  Solving for epsilon, Initial residual = 0.0905822, Final residual = 0.00121089, No Iterations 1
smoothSolver:  Solving for k, Initial residual = 0.00242102, Final residual = 0.000174504, No Iterations 1
ExecutionTime = 1.04597 s  ClockTime = 4 s

Time = 39s

smoothSolver:  Solving for Ux, Initial residual = 0.109775, Final residual = 0.00188913, No Iterations 1
smoothSolver:  Solving for Uy, Initial residual = 0.383646, Final residual = 0.0125958, No Iterations 1
smoothSolver:  Solving for Uz, Initial residual = 0.126549, Final residual = 0.00319881, No Iterations 1
GAMG:  Solving for p, Initial residual = 0.390904, Final residual = 0.0111279, No Iterations 2
time step continuity errors : sum local = 8.3091e-06, global = 1.65563e-06, cumulative = -0.00187453
smoothSolver:  Solving for epsilon, Initial residual = 0.0905979, Final residual = 0.00121159, No Iterations 1
smoothSolver:  Solving for k, Initial residual = 0.00241779, Final residual = 0.000169318, No Iterations 1
ExecutionTime = 1.06528 s  ClockTime = 4 s

Time = 40s

smoothSolver:  Solving for Ux, Initial residual = 0.0923884, Final residual = 0.00184521, No Iterations 1
smoothSolver:  Solving for Uy, Initial residual = 0.283955, Final residual = 0.00874122, No Iterations 1
smoothSolver:  Solving for Uz, Initial residual = 0.138774, Final residual = 0.00300036, No Iterations 1
GAMG:  Solving for p, Initial residual = 0.370868, Final residual = 0.0109757, No Iterations 2
time step continuity errors : sum local = 7.72586e-06, global = 4.78976e-06, cumulative = -0.00186974
smoothSolver:  Solving for epsilon, Initial residual = 0.0906052, Final residual = 0.00121101, No Iterations 1
smoothSolver:  Solving for k, Initial residual = 0.00235021, Final residual = 0.000166504, No Iterations 1
ExecutionTime = 1.08492 s  ClockTime = 4 s

Time = 41s

smoothSolver:  Solving for Ux, Initial residual = 0.0703242, Final residual = 0.00149577, No Iterations 1
smoothSolver:  Solving for Uy, Initial residual = 0.383096, Final residual = 0.0118792, No Iterations 1
smoothSolver:  Solving for Uz, Initial residual = 0.176595, Final residual = 0.00424474, No Iterations 1
GAMG:  Solving for p, Initial residual = 0.391604, Final residual = 0.0114359, No Iterations 2
time step continuity errors : sum local = 6.55118e-06, global = 4.5297e-06, cumulative = -0.00186521
smoothSolver:  Solving for epsilon, Initial residual = 0.0906025, Final residual = 0.00121146, No Iterations 1
smoothSolver:  Solving for k, Initial residual = 0.00228238, Final residual = 0.000160689, No Iterations 1
ExecutionTime = 1.10442 s  ClockTime = 4 s

Time = 42s

smoothSolver:  Solving for Ux, Initial residual = 0.0537856, Final residual = 0.00127222, No Iterations 1
smoothSolver:  Solving for Uy, Initial residual = 0.457018, Final residual = 0.0153867, No Iterations 1
smoothSolver:  Solving for Uz, Initial residual = 0.177377, Final residual = 0.00477409, No Iterations 1
GAMG:  Solving for p, Initial residual = 0.411962, Final residual = 0.00684881, No Iterations 2
time step continuity errors : sum local = 3.25813e-06, global = 7.08732e-07, cumulative = -0.0018645
smoothSolver:  Solving for epsilon, Initial residual = 0.0906081, Final residual = 0.00121174, No Iterations 1
smoothSolver:  Solving for k, Initial residual = 0.0022749, Final residual = 0.000158926, No Iterations 1
ExecutionTime = 1.12385 s  ClockTime = 4 s

Time = 43s

smoothSolver:  Solving for Ux, Initial residual = 0.0547956, Final residual = 0.00135792, No Iterations 1
smoothSolver:  Solving for Uy, Initial residual = 0.428153, Final residual = 0.0145104, No Iterations 1
smoothSolver:  Solving for Uz, Initial residual = 0.128433, Final residual = 0.00370606, No Iterations 1
GAMG:  Solving for p, Initial residual = 0.36655, Final residual = 0.00740897, No Iterations 2
time step continuity errors : sum local = 3.26353e-06, global = 2.08108e-07, cumulative = -0.00186429
smoothSolver:  Solving for epsilon, Initial residual = 0.0906284, Final residual = 0.00121238, No Iterations 1
smoothSolver:  Solving for k, Initial residual = 0.0022578, Final residual = 0.000162261, No Iterations 1
ExecutionTime = 1.1435 s  ClockTime = 4 s

Time = 44s

smoothSolver:  Solving for Ux, Initial residual = 0.0542704, Final residual = 0.00130079, No Iterations 1
smoothSolver:  Solving for Uy, Initial residual = 0.360786, Final residual = 0.0113133, No Iterations 1
smoothSolver:  Solving for Uz, Initial residual = 0.0835759, Final residual = 0.00234672, No Iterations 1
GAMG:  Solving for p, Initial residual = 0.262907, Final residual = 0.00589643, No Iterations 2
time step continuity errors : sum local = 2.71535e-06, global = -6.19595e-07, cumulative = -0.00186491
smoothSolver:  Solving for epsilon, Initial residual = 0.0906179, Final residual = 0.00121176, No Iterations 1
smoothSolver:  Solving for k, Initial residual = 0.00226042, Final residual = 0.000165607, No Iterations 1
ExecutionTime = 1.16293 s  ClockTime = 4 s

Time = 45s

smoothSolver:  Solving for Ux, Initial residual = 0.0412161, Final residual = 0.000945086, No Iterations 1
smoothSolver:  Solving for Uy, Initial residual = 0.406993, Final residual = 0.0125317, No Iterations 1
smoothSolver:  Solving for Uz, Initial residual = 0.0878315, Final residual = 0.00193976, No Iterations 1
GAMG:  Solving for p, Initial residual = 0.210779, Final residual = 0.00507243, No Iterations 2
time step continuity errors : sum local = 2.31985e-06, global = 3.63713e-07, cumulative = -0.00186455
smoothSolver:  Solving for epsilon, Initial residual = 0.0905924, Final residual = 0.00121183, No Iterations 1
smoothSolver:  Solving for k, Initial residual = 0.00225607, Final residual = 0.000162968, No Iterations 1
ExecutionTime = 1.18307 s  ClockTime = 4 s

Time = 46s

smoothSolver:  Solving for Ux, Initial residual = 0.0391161, Final residual = 0.0009233, No Iterations 1
smoothSolver:  Solving for Uy, Initial residual = 0.404846, Final residual = 0.0140998, No Iterations 1
smoothSolver:  Solving for Uz, Initial residual = 0.107585, Final residual = 0.00244917, No Iterations 1
GAMG:  Solving for p, Initial residual = 0.226037, Final residual = 0.00608547, No Iterations 2
time step continuity errors : sum local = 2.32449e-06, global = -6.00263e-07, cumulative = -0.00186515
smoothSolver:  Solving for epsilon, Initial residual = 0.0905822, Final residual = 0.0012118, No Iterations 1
smoothSolver:  Solving for k, Initial residual = 0.00228193, Final residual = 0.000160044, No Iterations 1
ExecutionTime = 1.20262 s  ClockTime = 4 s

Time = 47s

smoothSolver:  Solving for Ux, Initial residual = 0.0376534, Final residual = 0.000823416, No Iterations 1
smoothSolver:  Solving for Uy, Initial residual = 0.34241, Final residual = 0.0116488, No Iterations 1
smoothSolver:  Solving for Uz, Initial residual = 0.110767, Final residual = 0.00272543, No Iterations 1
GAMG:  Solving for p, Initial residual = 0.318606, Final residual = 0.0165021, No Iterations 2
time step continuity errors : sum local = 3.993e-06, global = -1.49696e-06, cumulative = -0.00186665
smoothSolver:  Solving for epsilon, Initial residual = 0.0905841, Final residual = 0.00121267, No Iterations 1
smoothSolver:  Solving for k, Initial residual = 0.00225143, Final residual = 0.000161479, No Iterations 1
ExecutionTime = 1.22216 s  ClockTime = 4 s

Time = 48s

smoothSolver:  Solving for Ux, Initial residual = 0.0302665, Final residual = 0.000633099, No Iterations 1
smoothSolver:  Solving for Uy, Initial residual = 0.360621, Final residual = 0.0106875, No Iterations 1
smoothSolver:  Solving for Uz, Initial residual = 0.0837108, Final residual = 0.00204637, No Iterations 1
GAMG:  Solving for p, Initial residual = 0.579063, Final residual = 0.0154396, No Iterations 2
time step continuity errors : sum local = 1.88769e-06, global = -7.03494e-07, cumulative = -0.00186735
smoothSolver:  Solving for epsilon, Initial residual = 0.090591, Final residual = 0.00121445, No Iterations 1
smoothSolver:  Solving for k, Initial residual = 0.00227416, Final residual = 0.000161517, No Iterations 1
ExecutionTime = 1.24183 s  ClockTime = 4 s

Time = 49s

smoothSolver:  Solving for Ux, Initial residual = 0.0231588, Final residual = 0.000568137, No Iterations 1
smoothSolver:  Solving for Uy, Initial residual = 0.507233, Final residual = 0.0155083, No Iterations 1
smoothSolver:  Solving for Uz, Initial residual = 0.0498444, Final residual = 0.00120306, No Iterations 1
GAMG:  Solving for p, Initial residual = 0.40455, Final residual = 0.00639572, No Iterations 2
time step continuity errors : sum local = 9.07787e-07, global = -2.58515e-07, cumulative = -0.00186761
smoothSolver:  Solving for epsilon, Initial residual = 0.0905972, Final residual = 0.00121342, No Iterations 1
smoothSolver:  Solving for k, Initial residual = 0.00229847, Final residual = 0.000161637, No Iterations 1
ExecutionTime = 1.2612 s  ClockTime = 4 s

Time = 50s

smoothSolver:  Solving for Ux, Initial residual = 0.021529, Final residual = 0.000613208, No Iterations 1
smoothSolver:  Solving for Uy, Initial residual = 0.510355, Final residual = 0.0180086, No Iterations 1
smoothSolver:  Solving for Uz, Initial residual = 0.0325028, Final residual = 0.000815139, No Iterations 1
GAMG:  Solving for p, Initial residual = 0.389814, Final residual = 0.0160225, No Iterations 2
time step continuity errors : sum local = 1.64016e-06, global = -6.31699e-07, cumulative = -0.00186824
smoothSolver:  Solving for epsilon, Initial residual = 0.0905815, Final residual = 0.00121316, No Iterations 1
smoothSolver:  Solving for k, Initial residual = 0.00228251, Final residual = 0.00015979, No Iterations 1
ExecutionTime = 1.30015 s  ClockTime = 4 s

Time = 51s

smoothSolver:  Solving for Ux, Initial residual = 0.0153364, Final residual = 0.000338199, No Iterations 1
smoothSolver:  Solving for Uy, Initial residual = 0.301239, Final residual = 0.0103443, No Iterations 1
smoothSolver:  Solving for Uz, Initial residual = 0.0334557, Final residual = 0.0007681, No Iterations 1
GAMG:  Solving for p, Initial residual = 0.212259, Final residual = 0.00807715, No Iterations 2
time step continuity errors : sum local = 1.08209e-06, global = -7.91013e-07, cumulative = -0.00186903
smoothSolver:  Solving for epsilon, Initial residual = 0.0905863, Final residual = 0.00121185, No Iterations 1
smoothSolver:  Solving for k, Initial residual = 0.00225233, Final residual = 0.000160281, No Iterations 1
ExecutionTime = 1.31969 s  ClockTime = 4 s

Time = 52s

smoothSolver:  Solving for Ux, Initial residual = 0.0117348, Final residual = 0.00018745, No Iterations 1
smoothSolver:  Solving for Uy, Initial residual = 0.318182, Final residual = 0.00927676, No Iterations 1
smoothSolver:  Solving for Uz, Initial residual = 0.0320328, Final residual = 0.000638512, No Iterations 1
GAMG:  Solving for p, Initial residual = 0.11662, Final residual = 0.00455699, No Iterations 2
time step continuity errors : sum local = 9.37473e-07, global = 3.45561e-07, cumulative = -0.00186868
smoothSolver:  Solving for epsilon, Initial residual = 0.0905674, Final residual = 0.00121169, No Iterations 1
smoothSolver:  Solving for k, Initial residual = 0.00224423, Final residual = 0.000157699, No Iterations 1
ExecutionTime = 1.33915 s  ClockTime = 4 s

Time = 53s

smoothSolver:  Solving for Ux, Initial residual = 0.0122729, Final residual = 0.000275147, No Iterations 1
smoothSolver:  Solving for Uy, Initial residual = 0.494668, Final residual = 0.0166462, No Iterations 1
smoothSolver:  Solving for Uz, Initial residual = 0.0288767, Final residual = 0.000517084, No Iterations 1
GAMG:  Solving for p, Initial residual = 0.0909721, Final residual = 0.0022252, No Iterations 2
time step continuity errors : sum local = 5.28154e-07, global = 1.55001e-07, cumulative = -0.00186853
smoothSolver:  Solving for epsilon, Initial residual = 0.0905738, Final residual = 0.0012128, No Iterations 1
smoothSolver:  Solving for k, Initial residual = 0.00221733, Final residual = 0.000158409, No Iterations 1
ExecutionTime = 1.35873 s  ClockTime = 4 s

Time = 54s

smoothSolver:  Solving for Ux, Initial residual = 0.00810547, Final residual = 0.000224174, No Iterations 1
smoothSolver:  Solving for Uy, Initial residual = 0.531914, Final residual = 0.0186641, No Iterations 1
smoothSolver:  Solving for Uz, Initial residual = 0.0257054, Final residual = 0.000499505, No Iterations 1
GAMG:  Solving for p, Initial residual = 0.0815221, Final residual = 0.00321338, No Iterations 2
time step continuity errors : sum local = 7.20342e-07, global = 4.17483e-07, cumulative = -0.00186811
smoothSolver:  Solving for epsilon, Initial residual = 0.0905637, Final residual = 0.00121285, No Iterations 1
smoothSolver:  Solving for k, Initial residual = 0.0022509, Final residual = 0.000159999, No Iterations 1
ExecutionTime = 1.37882 s  ClockTime = 4 s

Time = 55s

smoothSolver:  Solving for Ux, Initial residual = 0.00371507, Final residual = 9.50041e-05, No Iterations 1
smoothSolver:  Solving for Uy, Initial residual = 0.273787, Final residual = 0.00845192, No Iterations 1
smoothSolver:  Solving for Uz, Initial residual = 0.0203093, Final residual = 0.000456354, No Iterations 1
GAMG:  Solving for p, Initial residual = 0.0765908, Final residual = 0.00260617, No Iterations 2
time step continuity errors : sum local = 4.93631e-07, global = 3.72389e-07, cumulative = -0.00186774
smoothSolver:  Solving for epsilon, Initial residual = 0.0905789, Final residual = 0.00121218, No Iterations 1
smoothSolver:  Solving for k, Initial residual = 0.00229554, Final residual = 0.000165218, No Iterations 1
ExecutionTime = 1.39778 s  ClockTime = 4 s

Time = 56s

smoothSolver:  Solving for Ux, Initial residual = 0.00448749, Final residual = 0.000108292, No Iterations 1
smoothSolver:  Solving for Uy, Initial residual = 0.394231, Final residual = 0.0115126, No Iterations 1
smoothSolver:  Solving for Uz, Initial residual = 0.0132404, Final residual = 0.00031849, No Iterations 1
GAMG:  Solving for p, Initial residual = 0.0672467, Final residual = 0.00103076, No Iterations 2
time step continuity errors : sum local = 1.66685e-07, global = 8.3479e-08, cumulative = -0.00186766
smoothSolver:  Solving for epsilon, Initial residual = 0.0905617, Final residual = 0.00121162, No Iterations 1
smoothSolver:  Solving for k, Initial residual = 0.00230455, Final residual = 0.00016338, No Iterations 1
ExecutionTime = 1.41695 s  ClockTime = 4 s

Time = 57s

smoothSolver:  Solving for Ux, Initial residual = 0.0045438, Final residual = 0.000123772, No Iterations 1
smoothSolver:  Solving for Uy, Initial residual = 0.523866, Final residual = 0.0180621, No Iterations 1
smoothSolver:  Solving for Uz, Initial residual = 0.0102234, Final residual = 0.000202637, No Iterations 1
GAMG:  Solving for p, Initial residual = 0.0526701, Final residual = 0.00132661, No Iterations 2
time step continuity errors : sum local = 2.03798e-07, global = 4.7494e-08, cumulative = -0.00186761
smoothSolver:  Solving for epsilon, Initial residual = 0.0905779, Final residual = 0.00121141, No Iterations 1
smoothSolver:  Solving for k, Initial residual = 0.00226552, Final residual = 0.000159678, No Iterations 1
ExecutionTime = 1.43678 s  ClockTime = 4 s

Time = 58s

smoothSolver:  Solving for Ux, Initial residual = 0.00296439, Final residual = 7.26882e-05, No Iterations 1
smoothSolver:  Solving for Uy, Initial residual = 0.4397, Final residual = 0.0151383, No Iterations 1
smoothSolver:  Solving for Uz, Initial residual = 0.0098742, Final residual = 0.000170676, No Iterations 1
GAMG:  Solving for p, Initial residual = 0.0380548, Final residual = 0.00091966, No Iterations 2
time step continuity errors : sum local = 1.47718e-07, global = 5.64904e-10, cumulative = -0.00186761
smoothSolver:  Solving for epsilon, Initial residual = 0.0905622, Final residual = 0.00121261, No Iterations 1
smoothSolver:  Solving for k, Initial residual = 0.00225303, Final residual = 0.000158849, No Iterations 1
ExecutionTime = 1.45724 s  ClockTime = 4 s

Time = 59s

smoothSolver:  Solving for Ux, Initial residual = 0.00199774, Final residual = 4.50704e-05, No Iterations 1
smoothSolver:  Solving for Uy, Initial residual = 0.225298, Final residual = 0.0060023, No Iterations 1
smoothSolver:  Solving for Uz, Initial residual = 0.00984785, Final residual = 0.000174068, No Iterations 1
GAMG:  Solving for p, Initial residual = 0.0285925, Final residual = 0.000741347, No Iterations 2
time step continuity errors : sum local = 1.26817e-07, global = 1.04445e-08, cumulative = -0.0018676
smoothSolver:  Solving for epsilon, Initial residual = 0.0905822, Final residual = 0.00121275, No Iterations 1
smoothSolver:  Solving for k, Initial residual = 0.0022416, Final residual = 0.000159083, No Iterations 1
ExecutionTime = 1.47643 s  ClockTime = 4 s

Time = 60s

smoothSolver:  Solving for Ux, Initial residual = 0.00219607, Final residual = 6.4033e-05, No Iterations 1
smoothSolver:  Solving for Uy, Initial residual = 0.36472, Final residual = 0.0110975, No Iterations 1
smoothSolver:  Solving for Uz, Initial residual = 0.00928006, Final residual = 0.000181536, No Iterations 1
GAMG:  Solving for p, Initial residual = 0.0244469, Final residual = 0.00055069, No Iterations 2
time step continuity errors : sum local = 9.60379e-08, global = 1.13114e-08, cumulative = -0.00186759
smoothSolver:  Solving for epsilon, Initial residual = 0.0905659, Final residual = 0.00121208, No Iterations 1
smoothSolver:  Solving for k, Initial residual = 0.00225952, Final residual = 0.000161587, No Iterations 1
ExecutionTime = 1.49592 s  ClockTime = 4 s

Time = 61s

smoothSolver:  Solving for Ux, Initial residual = 0.00160807, Final residual = 4.97503e-05, No Iterations 1
smoothSolver:  Solving for Uy, Initial residual = 0.432843, Final residual = 0.0147813, No Iterations 1
smoothSolver:  Solving for Uz, Initial residual = 0.0074042, Final residual = 0.000159971, No Iterations 1
GAMG:  Solving for p, Initial residual = 0.0218048, Final residual = 0.000559681, No Iterations 2
time step continuity errors : sum local = 9.48958e-08, global = 4.44434e-08, cumulative = -0.00186754
smoothSolver:  Solving for epsilon, Initial residual = 0.090571, Final residual = 0.00121188, No Iterations 1
smoothSolver:  Solving for k, Initial residual = 0.0022831, Final residual = 0.000163246, No Iterations 1
ExecutionTime = 1.51544 s  ClockTime = 4 s

Time = 62s

smoothSolver:  Solving for Ux, Initial residual = 0.00104965, Final residual = 1.70298e-05, No Iterations 1
smoothSolver:  Solving for Uy, Initial residual = 0.321214, Final residual = 0.00965503, No Iterations 1
smoothSolver:  Solving for Uz, Initial residual = 0.0049287, Final residual = 0.000105667, No Iterations 1
GAMG:  Solving for p, Initial residual = 0.0195764, Final residual = 0.000474057, No Iterations 2
time step continuity errors : sum local = 7.63401e-08, global = -3.38193e-08, cumulative = -0.00186758
smoothSolver:  Solving for epsilon, Initial residual = 0.0905512, Final residual = 0.00121147, No Iterations 1
smoothSolver:  Solving for k, Initial residual = 0.00232167, Final residual = 0.000164594, No Iterations 1
ExecutionTime = 1.53488 s  ClockTime = 4 s

Time = 63s

smoothSolver:  Solving for Ux, Initial residual = 0.00123175, Final residual = 2.56153e-05, No Iterations 1
smoothSolver:  Solving for Uy, Initial residual = 0.284521, Final residual = 0.00632781, No Iterations 1
smoothSolver:  Solving for Uz, Initial residual = 0.00294698, Final residual = 5.02125e-05, No Iterations 1
GAMG:  Solving for p, Initial residual = 0.0162988, Final residual = 0.000305429, No Iterations 2
time step continuity errors : sum local = 4.74002e-08, global = 6.94496e-09, cumulative = -0.00186757
smoothSolver:  Solving for epsilon, Initial residual = 0.0905633, Final residual = 0.00121279, No Iterations 1
smoothSolver:  Solving for k, Initial residual = 0.00233186, Final residual = 0.00016337, No Iterations 1
ExecutionTime = 1.55452 s  ClockTime = 4 s

Time = 64s

smoothSolver:  Solving for Ux, Initial residual = 0.00101526, Final residual = 2.56724e-05, No Iterations 1
smoothSolver:  Solving for Uy, Initial residual = 0.410433, Final residual = 0.0121494, No Iterations 1
smoothSolver:  Solving for Uz, Initial residual = 0.00277786, Final residual = 4.36836e-05, No Iterations 1
GAMG:  Solving for p, Initial residual = 0.0128362, Final residual = 0.0004148, No Iterations 2
time step continuity errors : sum local = 6.41316e-08, global = -2.74466e-08, cumulative = -0.0018676
smoothSolver:  Solving for epsilon, Initial residual = 0.090576, Final residual = 0.00121273, No Iterations 1
smoothSolver:  Solving for k, Initial residual = 0.00233741, Final residual = 0.000166533, No Iterations 1
ExecutionTime = 1.57432 s  ClockTime = 4 s

Time = 65s

smoothSolver:  Solving for Ux, Initial residual = 0.000618278, Final residual = 1.3411e-05, No Iterations 1
smoothSolver:  Solving for Uy, Initial residual = 0.398446, Final residual = 0.0113533, No Iterations 1
smoothSolver:  Solving for Uz, Initial residual = 0.00302941, Final residual = 5.44676e-05, No Iterations 1
GAMG:  Solving for p, Initial residual = 0.00969775, Final residual = 0.000388412, No Iterations 2
time step continuity errors : sum local = 6.09416e-08, global = -4.40252e-08, cumulative = -0.00186764
smoothSolver:  Solving for epsilon, Initial residual = 0.0906061, Final residual = 0.00121481, No Iterations 1
smoothSolver:  Solving for k, Initial residual = 0.00228884, Final residual = 0.000159372, No Iterations 1
ExecutionTime = 1.5942 s  ClockTime = 4 s

Time = 66s

smoothSolver:  Solving for Ux, Initial residual = 0.00055629, Final residual = 9.91219e-06, No Iterations 1
smoothSolver:  Solving for Uy, Initial residual = 0.241395, Final residual = 0.00508811, No Iterations 1
smoothSolver:  Solving for Uz, Initial residual = 0.00262471, Final residual = 4.40203e-05, No Iterations 1
GAMG:  Solving for p, Initial residual = 0.0074994, Final residual = 0.000182996, No Iterations 2
time step continuity errors : sum local = 2.92144e-08, global = -1.15885e-08, cumulative = -0.00186765
smoothSolver:  Solving for epsilon, Initial residual = 0.0905936, Final residual = 0.00121397, No Iterations 1
smoothSolver:  Solving for k, Initial residual = 0.00225689, Final residual = 0.000159836, No Iterations 1
ExecutionTime = 1.61334 s  ClockTime = 4 s

Time = 67s

smoothSolver:  Solving for Ux, Initial residual = 0.000565476, Final residual = 1.22214e-05, No Iterations 1
smoothSolver:  Solving for Uy, Initial residual = 0.292057, Final residual = 0.00796566, No Iterations 1
smoothSolver:  Solving for Uz, Initial residual = 0.00205833, Final residual = 2.82304e-05, No Iterations 1
GAMG:  Solving for p, Initial residual = 0.00603006, Final residual = 0.000597462, No Iterations 1
time step continuity errors : sum local = 9.62327e-08, global = 3.78816e-08, cumulative = -0.00186761
smoothSolver:  Solving for epsilon, Initial residual = 0.0905804, Final residual = 0.00121322, No Iterations 1
smoothSolver:  Solving for k, Initial residual = 0.00220441, Final residual = 0.000154712, No Iterations 1
ExecutionTime = 1.63207 s  ClockTime = 4 s

Time = 68s

smoothSolver:  Solving for Ux, Initial residual = 0.000459522, Final residual = 9.17083e-06, No Iterations 1
smoothSolver:  Solving for Uy, Initial residual = 0.326122, Final residual = 0.00902274, No Iterations 1
smoothSolver:  Solving for Uz, Initial residual = 0.00173674, Final residual = 2.12431e-05, No Iterations 1
GAMG:  Solving for p, Initial residual = 0.00544624, Final residual = 0.000108062, No Iterations 2
time step continuity errors : sum local = 1.73807e-08, global = 4.32731e-10, cumulative = -0.00186761
smoothSolver:  Solving for epsilon, Initial residual = 0.0905626, Final residual = 0.00121279, No Iterations 1
smoothSolver:  Solving for k, Initial residual = 0.0022138, Final residual = 0.000158548, No Iterations 1
ExecutionTime = 1.65138 s  ClockTime = 4 s

Time = 69s

smoothSolver:  Solving for Ux, Initial residual = 0.000375845, Final residual = 6.54021e-06, No Iterations 1
smoothSolver:  Solving for Uy, Initial residual = 0.304323, Final residual = 0.00760967, No Iterations 1
smoothSolver:  Solving for Uz, Initial residual = 0.00167362, Final residual = 2.26131e-05, No Iterations 1
GAMG:  Solving for p, Initial residual = 0.00468273, Final residual = 9.04279e-05, No Iterations 2
time step continuity errors : sum local = 1.44316e-08, global = -2.2067e-09, cumulative = -0.00186762
smoothSolver:  Solving for epsilon, Initial residual = 0.090563, Final residual = 0.00121368, No Iterations 1
smoothSolver:  Solving for k, Initial residual = 0.00224575, Final residual = 0.000158519, No Iterations 1
ExecutionTime = 1.67026 s  ClockTime = 4 s

Time = 70s

smoothSolver:  Solving for Ux, Initial residual = 0.000369108, Final residual = 7.03613e-06, No Iterations 1
smoothSolver:  Solving for Uy, Initial residual = 0.283292, Final residual = 0.00621879, No Iterations 1
smoothSolver:  Solving for Uz, Initial residual = 0.00156912, Final residual = 1.98579e-05, No Iterations 1
GAMG:  Solving for p, Initial residual = 0.00408821, Final residual = 0.000402963, No Iterations 1
time step continuity errors : sum local = 6.39943e-08, global = -1.37379e-08, cumulative = -0.00186763
smoothSolver:  Solving for epsilon, Initial residual = 0.0905679, Final residual = 0.00121395, No Iterations 1
smoothSolver:  Solving for k, Initial residual = 0.00229622, Final residual = 0.000158702, No Iterations 1
ExecutionTime = 1.68927 s  ClockTime = 4 s

Time = 71s

smoothSolver:  Solving for Ux, Initial residual = 0.000329136, Final residual = 6.19594e-06, No Iterations 1
smoothSolver:  Solving for Uy, Initial residual = 0.28731, Final residual = 0.00662451, No Iterations 1
smoothSolver:  Solving for Uz, Initial residual = 0.00143228, Final residual = 1.67867e-05, No Iterations 1
GAMG:  Solving for p, Initial residual = 0.00384991, Final residual = 7.15626e-05, No Iterations 2
time step continuity errors : sum local = 1.13719e-08, global = -2.43924e-09, cumulative = -0.00186763
smoothSolver:  Solving for epsilon, Initial residual = 0.0905805, Final residual = 0.0012126, No Iterations 1
smoothSolver:  Solving for k, Initial residual = 0.00229513, Final residual = 0.000163218, No Iterations 1
ExecutionTime = 1.70847 s  ClockTime = 4 s

Time = 72s

smoothSolver:  Solving for Ux, Initial residual = 0.000308331, Final residual = 4.48279e-06, No Iterations 1
smoothSolver:  Solving for Uy, Initial residual = 0.323638, Final residual = 0.00840177, No Iterations 1
smoothSolver:  Solving for Uz, Initial residual = 0.00141018, Final residual = 1.74348e-05, No Iterations 1
GAMG:  Solving for p, Initial residual = 0.00337403, Final residual = 6.50989e-05, No Iterations 2
time step continuity errors : sum local = 1.03888e-08, global = 3.19862e-09, cumulative = -0.00186763
smoothSolver:  Solving for epsilon, Initial residual = 0.0905617, Final residual = 0.00121182, No Iterations 1
smoothSolver:  Solving for k, Initial residual = 0.0022775, Final residual = 0.000162526, No Iterations 1
ExecutionTime = 1.72856 s  ClockTime = 4 s

Time = 73s

smoothSolver:  Solving for Ux, Initial residual = 0.00031034, Final residual = 4.12891e-06, No Iterations 1
smoothSolver:  Solving for Uy, Initial residual = 0.323262, Final residual = 0.00820639, No Iterations 1
smoothSolver:  Solving for Uz, Initial residual = 0.00140655, Final residual = 1.87002e-05, No Iterations 1
GAMG:  Solving for p, Initial residual = 0.00306955, Final residual = 0.000296816, No Iterations 1
time step continuity errors : sum local = 4.75895e-08, global = -3.5683e-08, cumulative = -0.00186766
smoothSolver:  Solving for epsilon, Initial residual = 0.0905667, Final residual = 0.00121172, No Iterations 1
smoothSolver:  Solving for k, Initial residual = 0.00230477, Final residual = 0.000162104, No Iterations 1
ExecutionTime = 1.74755 s  ClockTime = 4 s

Time = 74s

smoothSolver:  Solving for Ux, Initial residual = 0.000276571, Final residual = 3.75231e-06, No Iterations 1
smoothSolver:  Solving for Uy, Initial residual = 0.28631, Final residual = 0.00659742, No Iterations 1
smoothSolver:  Solving for Uz, Initial residual = 0.00129491, Final residual = 1.61298e-05, No Iterations 1
GAMG:  Solving for p, Initial residual = 0.00289054, Final residual = 5.67402e-05, No Iterations 2
time step continuity errors : sum local = 9.10355e-09, global = 3.28882e-09, cumulative = -0.00186766
smoothSolver:  Solving for epsilon, Initial residual = 0.0905583, Final residual = 0.00121172, No Iterations 1
smoothSolver:  Solving for k, Initial residual = 0.00230311, Final residual = 0.00016016, No Iterations 1
ExecutionTime = 1.76684 s  ClockTime = 4 s

Time = 75s

smoothSolver:  Solving for Ux, Initial residual = 0.000260929, Final residual = 3.95215e-06, No Iterations 1
smoothSolver:  Solving for Uy, Initial residual = 0.311707, Final residual = 0.00778025, No Iterations 1
smoothSolver:  Solving for Uz, Initial residual = 0.00122487, Final residual = 1.37155e-05, No Iterations 1
GAMG:  Solving for p, Initial residual = 0.00246558, Final residual = 0.000230846, No Iterations 1
time step continuity errors : sum local = 3.71028e-08, global = 4.2025e-09, cumulative = -0.00186766
smoothSolver:  Solving for epsilon, Initial residual = 0.0905707, Final residual = 0.00121053, No Iterations 1
smoothSolver:  Solving for k, Initial residual = 0.00227692, Final residual = 0.000163186, No Iterations 1
ExecutionTime = 1.78583 s  ClockTime = 4 s

Time = 76s

smoothSolver:  Solving for Ux, Initial residual = 0.000264316, Final residual = 3.93843e-06, No Iterations 1
smoothSolver:  Solving for Uy, Initial residual = 0.306149, Final residual = 0.00781056, No Iterations 1
smoothSolver:  Solving for Uz, Initial residual = 0.00119928, Final residual = 1.34208e-05, No Iterations 1
GAMG:  Solving for p, Initial residual = 0.00216242, Final residual = 5.42866e-05, No Iterations 2
time step continuity errors : sum local = 8.71892e-09, global = 3.9472e-09, cumulative = -0.00186765
smoothSolver:  Solving for epsilon, Initial residual = 0.0905804, Final residual = 0.00121339, No Iterations 1
smoothSolver:  Solving for k, Initial residual = 0.00225729, Final residual = 0.000156599, No Iterations 1
ExecutionTime = 1.80576 s  ClockTime = 4 s

Time = 77s

smoothSolver:  Solving for Ux, Initial residual = 0.000233974, Final residual = 2.60897e-06, No Iterations 1
smoothSolver:  Solving for Uy, Initial residual = 0.295613, Final residual = 0.00751365, No Iterations 1
smoothSolver:  Solving for Uz, Initial residual = 0.00121612, Final residual = 1.35597e-05, No Iterations 1
GAMG:  Solving for p, Initial residual = 0.00193577, Final residual = 0.000192221, No Iterations 1
time step continuity errors : sum local = 3.07889e-08, global = 1.61461e-09, cumulative = -0.00186765
smoothSolver:  Solving for epsilon, Initial residual = 0.0905867, Final residual = 0.00121318, No Iterations 1
smoothSolver:  Solving for k, Initial residual = 0.00224297, Final residual = 0.000159493, No Iterations 1
ExecutionTime = 1.82494 s  ClockTime = 4 s

Time = 78s

smoothSolver:  Solving for Ux, Initial residual = 0.000236003, Final residual = 2.72701e-06, No Iterations 1
smoothSolver:  Solving for Uy, Initial residual = 0.288457, Final residual = 0.00721824, No Iterations 1
smoothSolver:  Solving for Uz, Initial residual = 0.00125947, Final residual = 1.42654e-05, No Iterations 1
GAMG:  Solving for p, Initial residual = 0.00193691, Final residual = 4.42627e-05, No Iterations 2
time step continuity errors : sum local = 7.07612e-09, global = -2.61489e-09, cumulative = -0.00186765
smoothSolver:  Solving for epsilon, Initial residual = 0.0905561, Final residual = 0.00121175, No Iterations 1
smoothSolver:  Solving for k, Initial residual = 0.00222159, Final residual = 0.000157281, No Iterations 1
ExecutionTime = 1.84435 s  ClockTime = 4 s

Time = 79s

smoothSolver:  Solving for Ux, Initial residual = 0.000235803, Final residual = 3.03233e-06, No Iterations 1
smoothSolver:  Solving for Uy, Initial residual = 0.304573, Final residual = 0.00783654, No Iterations 1
smoothSolver:  Solving for Uz, Initial residual = 0.00127973, Final residual = 1.48994e-05, No Iterations 1
GAMG:  Solving for p, Initial residual = 0.00187319, Final residual = 0.000173276, No Iterations 1
time step continuity errors : sum local = 2.7659e-08, global = -1.64452e-10, cumulative = -0.00186765
smoothSolver:  Solving for epsilon, Initial residual = 0.0905513, Final residual = 0.00121148, No Iterations 1
smoothSolver:  Solving for k, Initial residual = 0.00222879, Final residual = 0.000158964, No Iterations 1
ExecutionTime = 1.86251 s  ClockTime = 4 s

Time = 80s

smoothSolver:  Solving for Ux, Initial residual = 0.000217638, Final residual = 2.66013e-06, No Iterations 1
smoothSolver:  Solving for Uy, Initial residual = 0.27987, Final residual = 0.00687235, No Iterations 1
smoothSolver:  Solving for Uz, Initial residual = 0.00123131, Final residual = 1.37661e-05, No Iterations 1
GAMG:  Solving for p, Initial residual = 0.00179759, Final residual = 0.000172607, No Iterations 1
time step continuity errors : sum local = 2.7558e-08, global = -7.32584e-11, cumulative = -0.00186765
smoothSolver:  Solving for epsilon, Initial residual = 0.0905348, Final residual = 0.00121087, No Iterations 1
smoothSolver:  Solving for k, Initial residual = 0.00226342, Final residual = 0.000159684, No Iterations 1
ExecutionTime = 1.88142 s  ClockTime = 4 s

Time = 81s

smoothSolver:  Solving for Ux, Initial residual = 0.000206137, Final residual = 2.26151e-06, No Iterations 1
smoothSolver:  Solving for Uy, Initial residual = 0.266477, Final residual = 0.00646703, No Iterations 1
smoothSolver:  Solving for Uz, Initial residual = 0.00118479, Final residual = 1.29642e-05, No Iterations 1
GAMG:  Solving for p, Initial residual = 0.00167481, Final residual = 0.000155551, No Iterations 1
time step continuity errors : sum local = 2.48537e-08, global = -1.46049e-09, cumulative = -0.00186766
smoothSolver:  Solving for epsilon, Initial residual = 0.0905709, Final residual = 0.00121262, No Iterations 1
smoothSolver:  Solving for k, Initial residual = 0.00227965, Final residual = 0.00015954, No Iterations 1
ExecutionTime = 1.90004 s  ClockTime = 4 s

Time = 82s

smoothSolver:  Solving for Ux, Initial residual = 0.000217461, Final residual = 2.46085e-06, No Iterations 1
smoothSolver:  Solving for Uy, Initial residual = 0.27885, Final residual = 0.00686052, No Iterations 1
smoothSolver:  Solving for Uz, Initial residual = 0.00117439, Final residual = 1.31527e-05, No Iterations 1
GAMG:  Solving for p, Initial residual = 0.00161357, Final residual = 0.000146431, No Iterations 1
time step continuity errors : sum local = 2.34215e-08, global = -6.4691e-09, cumulative = -0.00186766
smoothSolver:  Solving for epsilon, Initial residual = 0.0905762, Final residual = 0.00121393, No Iterations 1
smoothSolver:  Solving for k, Initial residual = 0.00230389, Final residual = 0.00016141, No Iterations 1
ExecutionTime = 1.91961 s  ClockTime = 4 s

Time = 83s

smoothSolver:  Solving for Ux, Initial residual = 0.000220412, Final residual = 2.63642e-06, No Iterations 1
smoothSolver:  Solving for Uy, Initial residual = 0.302644, Final residual = 0.00773696, No Iterations 1
smoothSolver:  Solving for Uz, Initial residual = 0.00120579, Final residual = 1.47548e-05, No Iterations 1
GAMG:  Solving for p, Initial residual = 0.00163271, Final residual = 1.97598e-05, No Iterations 2
time step continuity errors : sum local = 3.16183e-09, global = -6.43407e-10, cumulative = -0.00186766
smoothSolver:  Solving for epsilon, Initial residual = 0.0905768, Final residual = 0.0012102, No Iterations 1
smoothSolver:  Solving for k, Initial residual = 0.00229685, Final residual = 0.00016189, No Iterations 1
ExecutionTime = 1.93955 s  ClockTime = 4 s

Time = 84s

smoothSolver:  Solving for Ux, Initial residual = 0.000220893, Final residual = 2.74797e-06, No Iterations 1
smoothSolver:  Solving for Uy, Initial residual = 0.336304, Final residual = 0.00878845, No Iterations 1
smoothSolver:  Solving for Uz, Initial residual = 0.00122544, Final residual = 1.57816e-05, No Iterations 1
GAMG:  Solving for p, Initial residual = 0.00155525, Final residual = 0.000142265, No Iterations 1
time step continuity errors : sum local = 2.27733e-08, global = 4.2042e-09, cumulative = -0.00186766
smoothSolver:  Solving for epsilon, Initial residual = 0.0905663, Final residual = 0.00121234, No Iterations 1
smoothSolver:  Solving for k, Initial residual = 0.00227347, Final residual = 0.000159702, No Iterations 1
ExecutionTime = 1.96022 s  ClockTime = 5 s

Time = 85s

smoothSolver:  Solving for Ux, Initial residual = 0.000209568, Final residual = 2.46156e-06, No Iterations 1
smoothSolver:  Solving for Uy, Initial residual = 0.301316, Final residual = 0.00745129, No Iterations 1
smoothSolver:  Solving for Uz, Initial residual = 0.00118984, Final residual = 1.43064e-05, No Iterations 1
GAMG:  Solving for p, Initial residual = 0.00155356, Final residual = 0.000143628, No Iterations 1
time step continuity errors : sum local = 2.29858e-08, global = 5.53042e-09, cumulative = -0.00186765
smoothSolver:  Solving for epsilon, Initial residual = 0.0905801, Final residual = 0.00121247, No Iterations 1
smoothSolver:  Solving for k, Initial residual = 0.00226857, Final residual = 0.00016246, No Iterations 1
ExecutionTime = 1.98229 s  ClockTime = 5 s

Time = 86s

smoothSolver:  Solving for Ux, Initial residual = 0.000201424, Final residual = 2.12983e-06, No Iterations 1
smoothSolver:  Solving for Uy, Initial residual = 0.275991, Final residual = 0.00663787, No Iterations 1
smoothSolver:  Solving for Uz, Initial residual = 0.00117154, Final residual = 1.31258e-05, No Iterations 1
GAMG:  Solving for p, Initial residual = 0.00155356, Final residual = 0.000150049, No Iterations 1
time step continuity errors : sum local = 2.40006e-08, global = 6.76772e-09, cumulative = -0.00186765
smoothSolver:  Solving for epsilon, Initial residual = 0.0905503, Final residual = 0.0012104, No Iterations 1
smoothSolver:  Solving for k, Initial residual = 0.00225211, Final residual = 0.000158273, No Iterations 1
ExecutionTime = 2.00184 s  ClockTime = 5 s

Time = 87s

smoothSolver:  Solving for Ux, Initial residual = 0.000207822, Final residual = 2.3848e-06, No Iterations 1
smoothSolver:  Solving for Uy, Initial residual = 0.293973, Final residual = 0.00738313, No Iterations 1
smoothSolver:  Solving for Uz, Initial residual = 0.00119561, Final residual = 1.37167e-05, No Iterations 1
GAMG:  Solving for p, Initial residual = 0.00153836, Final residual = 2.20568e-05, No Iterations 2
time step continuity errors : sum local = 3.52622e-09, global = 1.11506e-10, cumulative = -0.00186765
smoothSolver:  Solving for epsilon, Initial residual = 0.0905863, Final residual = 0.00121317, No Iterations 1
smoothSolver:  Solving for k, Initial residual = 0.002243, Final residual = 0.000155913, No Iterations 1
ExecutionTime = 2.02105 s  ClockTime = 5 s

Time = 88s

smoothSolver:  Solving for Ux, Initial residual = 0.000218819, Final residual = 2.78356e-06, No Iterations 1
smoothSolver:  Solving for Uy, Initial residual = 0.360687, Final residual = 0.00986949, No Iterations 1
smoothSolver:  Solving for Uz, Initial residual = 0.00124276, Final residual = 1.5795e-05, No Iterations 1
GAMG:  Solving for p, Initial residual = 0.00149631, Final residual = 0.000141744, No Iterations 1
time step continuity errors : sum local = 2.26498e-08, global = -3.91322e-09, cumulative = -0.00186765
smoothSolver:  Solving for epsilon, Initial residual = 0.0905663, Final residual = 0.00121311, No Iterations 1
smoothSolver:  Solving for k, Initial residual = 0.00226395, Final residual = 0.000163948, No Iterations 1
ExecutionTime = 2.04064 s  ClockTime = 5 s

Time = 89s

smoothSolver:  Solving for Ux, Initial residual = 0.000212874, Final residual = 2.58278e-06, No Iterations 1
smoothSolver:  Solving for Uy, Initial residual = 0.318842, Final residual = 0.00839581, No Iterations 1
smoothSolver:  Solving for Uz, Initial residual = 0.00121772, Final residual = 1.52153e-05, No Iterations 1
GAMG:  Solving for p, Initial residual = 0.00151592, Final residual = 0.000139942, No Iterations 1
time step continuity errors : sum local = 2.23634e-08, global = -5.6692e-09, cumulative = -0.00186766
smoothSolver:  Solving for epsilon, Initial residual = 0.0905844, Final residual = 0.00121327, No Iterations 1
smoothSolver:  Solving for k, Initial residual = 0.00226431, Final residual = 0.000160851, No Iterations 1
ExecutionTime = 2.05932 s  ClockTime = 5 s

Time = 90s

smoothSolver:  Solving for Ux, Initial residual = 0.000202365, Final residual = 2.17812e-06, No Iterations 1
smoothSolver:  Solving for Uy, Initial residual = 0.268665, Final residual = 0.00668113, No Iterations 1
smoothSolver:  Solving for Uz, Initial residual = 0.00118201, Final residual = 1.39285e-05, No Iterations 1
GAMG:  Solving for p, Initial residual = 0.00151767, Final residual = 0.000142104, No Iterations 1
time step continuity errors : sum local = 2.27213e-08, global = -6.24554e-09, cumulative = -0.00186766
smoothSolver:  Solving for epsilon, Initial residual = 0.0905636, Final residual = 0.00121296, No Iterations 1
smoothSolver:  Solving for k, Initial residual = 0.00231411, Final residual = 0.000164087, No Iterations 1
ExecutionTime = 2.07795 s  ClockTime = 5 s

Time = 91s

smoothSolver:  Solving for Ux, Initial residual = 0.000210669, Final residual = 2.32722e-06, No Iterations 1
smoothSolver:  Solving for Uy, Initial residual = 0.268552, Final residual = 0.00660437, No Iterations 1
smoothSolver:  Solving for Uz, Initial residual = 0.00117132, Final residual = 1.29931e-05, No Iterations 1
GAMG:  Solving for p, Initial residual = 0.00152182, Final residual = 2.45458e-05, No Iterations 2
time step continuity errors : sum local = 3.92681e-09, global = 1.94305e-10, cumulative = -0.00186766
smoothSolver:  Solving for epsilon, Initial residual = 0.0905682, Final residual = 0.00121305, No Iterations 1
smoothSolver:  Solving for k, Initial residual = 0.00228833, Final residual = 0.000157403, No Iterations 1
ExecutionTime = 2.09682 s  ClockTime = 5 s

Time = 92s

smoothSolver:  Solving for Ux, Initial residual = 0.000225837, Final residual = 2.8602e-06, No Iterations 1
smoothSolver:  Solving for Uy, Initial residual = 0.334659, Final residual = 0.00906927, No Iterations 1
smoothSolver:  Solving for Uz, Initial residual = 0.00121665, Final residual = 1.47788e-05, No Iterations 1
GAMG:  Solving for p, Initial residual = 0.00148132, Final residual = 0.000138194, No Iterations 1
time step continuity errors : sum local = 2.21236e-08, global = 3.10341e-09, cumulative = -0.00186766
smoothSolver:  Solving for epsilon, Initial residual = 0.0905847, Final residual = 0.00121407, No Iterations 1
smoothSolver:  Solving for k, Initial residual = 0.00226641, Final residual = 0.000162545, No Iterations 1
ExecutionTime = 2.11561 s  ClockTime = 5 s

Time = 93s

smoothSolver:  Solving for Ux, Initial residual = 0.000218791, Final residual = 2.6817e-06, No Iterations 1
smoothSolver:  Solving for Uy, Initial residual = 0.332976, Final residual = 0.00881551, No Iterations 1
smoothSolver:  Solving for Uz, Initial residual = 0.00122653, Final residual = 1.54354e-05, No Iterations 1
GAMG:  Solving for p, Initial residual = 0.00145719, Final residual = 0.000141176, No Iterations 1
time step continuity errors : sum local = 2.25988e-08, global = 5.7772e-09, cumulative = -0.00186765
smoothSolver:  Solving for epsilon, Initial residual = 0.0905855, Final residual = 0.00121524, No Iterations 1
smoothSolver:  Solving for k, Initial residual = 0.00224389, Final residual = 0.000158244, No Iterations 1
ExecutionTime = 2.13415 s  ClockTime = 5 s

Time = 94s

smoothSolver:  Solving for Ux, Initial residual = 0.000204422, Final residual = 2.30355e-06, No Iterations 1
smoothSolver:  Solving for Uy, Initial residual = 0.281099, Final residual = 0.00706165, No Iterations 1
smoothSolver:  Solving for Uz, Initial residual = 0.00121182, Final residual = 1.48127e-05, No Iterations 1
GAMG:  Solving for p, Initial residual = 0.00144172, Final residual = 0.00013512, No Iterations 1
time step continuity errors : sum local = 2.16218e-08, global = 4.91891e-09, cumulative = -0.00186765
smoothSolver:  Solving for epsilon, Initial residual = 0.0905665, Final residual = 0.00121092, No Iterations 1
smoothSolver:  Solving for k, Initial residual = 0.00226352, Final residual = 0.000162299, No Iterations 1
ExecutionTime = 2.15288 s  ClockTime = 5 s

Time = 95s

smoothSolver:  Solving for Ux, Initial residual = 0.000204088, Final residual = 2.16194e-06, No Iterations 1
smoothSolver:  Solving for Uy, Initial residual = 0.261545, Final residual = 0.00650409, No Iterations 1
smoothSolver:  Solving for Uz, Initial residual = 0.00119105, Final residual = 1.37195e-05, No Iterations 1
GAMG:  Solving for p, Initial residual = 0.0014751, Final residual = 0.000144145, No Iterations 1
time step continuity errors : sum local = 2.30502e-08, global = 5.16998e-09, cumulative = -0.00186764
smoothSolver:  Solving for epsilon, Initial residual = 0.0905673, Final residual = 0.00121262, No Iterations 1
smoothSolver:  Solving for k, Initial residual = 0.0022358, Final residual = 0.000158618, No Iterations 1
ExecutionTime = 2.1721 s  ClockTime = 5 s

Time = 96s

smoothSolver:  Solving for Ux, Initial residual = 0.000208266, Final residual = 2.3252e-06, No Iterations 1
smoothSolver:  Solving for Uy, Initial residual = 0.255146, Final residual = 0.00623592, No Iterations 1
smoothSolver:  Solving for Uz, Initial residual = 0.00118272, Final residual = 1.2805e-05, No Iterations 1
GAMG:  Solving for p, Initial residual = 0.00149773, Final residual = 0.000148418, No Iterations 1
time step continuity errors : sum local = 2.37283e-08, global = 1.47869e-09, cumulative = -0.00186764
smoothSolver:  Solving for epsilon, Initial residual = 0.0905507, Final residual = 0.00121078, No Iterations 1
smoothSolver:  Solving for k, Initial residual = 0.00225619, Final residual = 0.000160827, No Iterations 1
ExecutionTime = 2.19118 s  ClockTime = 5 s

Time = 97s

smoothSolver:  Solving for Ux, Initial residual = 0.000208543, Final residual = 2.37337e-06, No Iterations 1
smoothSolver:  Solving for Uy, Initial residual = 0.281906, Final residual = 0.00695692, No Iterations 1
smoothSolver:  Solving for Uz, Initial residual = 0.0012019, Final residual = 1.31731e-05, No Iterations 1
GAMG:  Solving for p, Initial residual = 0.00150158, Final residual = 0.000143007, No Iterations 1
time step continuity errors : sum local = 2.28618e-08, global = -2.85749e-09, cumulative = -0.00186764
smoothSolver:  Solving for epsilon, Initial residual = 0.0905481, Final residual = 0.00121085, No Iterations 1
smoothSolver:  Solving for k, Initial residual = 0.00226971, Final residual = 0.000159498, No Iterations 1
ExecutionTime = 2.20967 s  ClockTime = 5 s

Time = 98s

smoothSolver:  Solving for Ux, Initial residual = 0.000205316, Final residual = 2.28835e-06, No Iterations 1
smoothSolver:  Solving for Uy, Initial residual = 0.311096, Final residual = 0.00773659, No Iterations 1
smoothSolver:  Solving for Uz, Initial residual = 0.00121108, Final residual = 1.36298e-05, No Iterations 1
GAMG:  Solving for p, Initial residual = 0.00145249, Final residual = 0.000133763, No Iterations 1
time step continuity errors : sum local = 2.13862e-08, global = -4.34772e-09, cumulative = -0.00186765
smoothSolver:  Solving for epsilon, Initial residual = 0.0905524, Final residual = 0.00121143, No Iterations 1
smoothSolver:  Solving for k, Initial residual = 0.00230431, Final residual = 0.00016233, No Iterations 1
ExecutionTime = 2.22871 s  ClockTime = 5 s

Time = 99s

smoothSolver:  Solving for Ux, Initial residual = 0.000204865, Final residual = 2.14688e-06, No Iterations 1
smoothSolver:  Solving for Uy, Initial residual = 0.300318, Final residual = 0.00731907, No Iterations 1
smoothSolver:  Solving for Uz, Initial residual = 0.00119655, Final residual = 1.34102e-05, No Iterations 1
GAMG:  Solving for p, Initial residual = 0.00142686, Final residual = 0.000127839, No Iterations 1
time step continuity errors : sum local = 2.04417e-08, global = -4.17522e-09, cumulative = -0.00186765
smoothSolver:  Solving for epsilon, Initial residual = 0.0905679, Final residual = 0.0012109, No Iterations 1
smoothSolver:  Solving for k, Initial residual = 0.00229946, Final residual = 0.000165393, No Iterations 1
ExecutionTime = 2.24759 s  ClockTime = 5 s

Time = 100s

smoothSolver:  Solving for Ux, Initial residual = 0.000201423, Final residual = 2.02731e-06, No Iterations 1
smoothSolver:  Solving for Uy, Initial residual = 0.277325, Final residual = 0.00670562, No Iterations 1
[...]

Time = 376s

smoothSolver:  Solving for Ux, Initial residual = 0.000206642, Final residual = 2.63826e-06, No Iterations 1
smoothSolver:  Solving for Uy, Initial residual = 0.357577, Final residual = 0.00929402, No Iterations 1
smoothSolver:  Solving for Uz, Initial residual = 0.00126202, Final residual = 1.59106e-05, No Iterations 1
GAMG:  Solving for p, Initial residual = 0.00151105, Final residual = 0.000137579, No Iterations 1
time step continuity errors : sum local = 2.19926e-08, global = -2.03887e-09, cumulative = -0.00186766
smoothSolver:  Solving for epsilon, Initial residual = 0.0905356, Final residual = 0.00121156, No Iterations 1
smoothSolver:  Solving for k, Initial residual = 0.00224624, Final residual = 0.000158139, No Iterations 1
ExecutionTime = 7.66619 s  ClockTime = 10 s

Time = 377s

smoothSolver:  Solving for Ux, Initial residual = 0.000203, Final residual = 2.49412e-06, No Iterations 1
smoothSolver:  Solving for Uy, Initial residual = 0.274286, Final residual = 0.00664219, No Iterations 1
smoothSolver:  Solving for Uz, Initial residual = 0.00120535, Final residual = 1.35049e-05, No Iterations 1
GAMG:  Solving for p, Initial residual = 0.00150482, Final residual = 0.000147466, No Iterations 1
time step continuity errors : sum local = 2.35747e-08, global = -3.049e-09, cumulative = -0.00186766
smoothSolver:  Solving for epsilon, Initial residual = 0.0905745, Final residual = 0.00121263, No Iterations 1
smoothSolver:  Solving for k, Initial residual = 0.00225297, Final residual = 0.000157772, No Iterations 1
ExecutionTime = 7.68481 s  ClockTime = 10 s

Time = 378s

smoothSolver:  Solving for Ux, Initial residual = 0.000207855, Final residual = 2.45518e-06, No Iterations 1
smoothSolver:  Solving for Uy, Initial residual = 0.247208, Final residual = 0.00576137, No Iterations 1
smoothSolver:  Solving for Uz, Initial residual = 0.0011984, Final residual = 1.26346e-05, No Iterations 1
GAMG:  Solving for p, Initial residual = 0.00153452, Final residual = 0.000149242, No Iterations 1
time step continuity errors : sum local = 2.3865e-08, global = -3.117e-09, cumulative = -0.00186766
smoothSolver:  Solving for epsilon, Initial residual = 0.0905772, Final residual = 0.00121428, No Iterations 1
smoothSolver:  Solving for k, Initial residual = 0.00228119, Final residual = 0.000164242, No Iterations 1
ExecutionTime = 7.70375 s  ClockTime = 10 s

Time = 379s

smoothSolver:  Solving for Ux, Initial residual = 0.00021468, Final residual = 2.66779e-06, No Iterations 1
smoothSolver:  Solving for Uy, Initial residual = 0.306835, Final residual = 0.0078223, No Iterations 1
smoothSolver:  Solving for Uz, Initial residual = 0.00121633, Final residual = 1.42615e-05, No Iterations 1
GAMG:  Solving for p, Initial residual = 0.0015474, Final residual = 0.000150654, No Iterations 1
time step continuity errors : sum local = 2.40942e-08, global = -2.93303e-09, cumulative = -0.00186767
smoothSolver:  Solving for epsilon, Initial residual = 0.0905753, Final residual = 0.00121219, No Iterations 1
smoothSolver:  Solving for k, Initial residual = 0.00231679, Final residual = 0.000167705, No Iterations 1
ExecutionTime = 7.72227 s  ClockTime = 10 s

Time = 380s

smoothSolver:  Solving for Ux, Initial residual = 0.000221152, Final residual = 2.79812e-06, No Iterations 1
smoothSolver:  Solving for Uy, Initial residual = 0.354112, Final residual = 0.00939176, No Iterations 1
smoothSolver:  Solving for Uz, Initial residual = 0.00122995, Final residual = 1.58317e-05, No Iterations 1
GAMG:  Solving for p, Initial residual = 0.0015715, Final residual = 0.000149599, No Iterations 1
time step continuity errors : sum local = 2.3929e-08, global = -1.37198e-09, cumulative = -0.00186767
smoothSolver:  Solving for epsilon, Initial residual = 0.0905566, Final residual = 0.00121039, No Iterations 1
smoothSolver:  Solving for k, Initial residual = 0.00233116, Final residual = 0.00016471, No Iterations 1
ExecutionTime = 7.74154 s  ClockTime = 10 s

Time = 381s

smoothSolver:  Solving for Ux, Initial residual = 0.000215458, Final residual = 2.69802e-06, No Iterations 1
smoothSolver:  Solving for Uy, Initial residual = 0.322086, Final residual = 0.00823292, No Iterations 1
smoothSolver:  Solving for Uz, Initial residual = 0.00123551, Final residual = 1.5456e-05, No Iterations 1
GAMG:  Solving for p, Initial residual = 0.00151775, Final residual = 0.000145839, No Iterations 1
time step continuity errors : sum local = 2.3328e-08, global = 5.12051e-10, cumulative = -0.00186767
smoothSolver:  Solving for epsilon, Initial residual = 0.0905632, Final residual = 0.00121268, No Iterations 1
smoothSolver:  Solving for k, Initial residual = 0.00230039, Final residual = 0.000161994, No Iterations 1
ExecutionTime = 7.76065 s  ClockTime = 10 s

Time = 382s

smoothSolver:  Solving for Ux, Initial residual = 0.000210315, Final residual = 2.57144e-06, No Iterations 1
smoothSolver:  Solving for Uy, Initial residual = 0.260923, Final residual = 0.00629504, No Iterations 1
smoothSolver:  Solving for Uz, Initial residual = 0.00119172, Final residual = 1.39197e-05, No Iterations 1
GAMG:  Solving for p, Initial residual = 0.00148508, Final residual = 0.000144746, No Iterations 1
time step continuity errors : sum local = 2.31536e-08, global = 2.13556e-09, cumulative = -0.00186767
smoothSolver:  Solving for epsilon, Initial residual = 0.0905555, Final residual = 0.00121204, No Iterations 1
smoothSolver:  Solving for k, Initial residual = 0.00230293, Final residual = 0.000163309, No Iterations 1
ExecutionTime = 7.77968 s  ClockTime = 10 s

Time = 383s

smoothSolver:  Solving for Ux, Initial residual = 0.000212786, Final residual = 2.62078e-06, No Iterations 1
smoothSolver:  Solving for Uy, Initial residual = 0.255799, Final residual = 0.0062185, No Iterations 1
smoothSolver:  Solving for Uz, Initial residual = 0.00117761, Final residual = 1.39553e-05, No Iterations 1
GAMG:  Solving for p, Initial residual = 0.00151722, Final residual = 2.34526e-05, No Iterations 2
time step continuity errors : sum local = 3.75073e-09, global = 4.0916e-10, cumulative = -0.00186767
smoothSolver:  Solving for epsilon, Initial residual = 0.0905935, Final residual = 0.00121303, No Iterations 1
smoothSolver:  Solving for k, Initial residual = 0.00226997, Final residual = 0.000158986, No Iterations 1
ExecutionTime = 7.79883 s  ClockTime = 10 s

Time = 384s

smoothSolver:  Solving for Ux, Initial residual = 0.000221735, Final residual = 2.97424e-06, No Iterations 1
smoothSolver:  Solving for Uy, Initial residual = 0.348137, Final residual = 0.00945132, No Iterations 1
smoothSolver:  Solving for Uz, Initial residual = 0.00124234, Final residual = 1.61101e-05, No Iterations 1
GAMG:  Solving for p, Initial residual = 0.00149628, Final residual = 0.000140417, No Iterations 1
time step continuity errors : sum local = 2.24465e-08, global = 6.32831e-11, cumulative = -0.00186767
smoothSolver:  Solving for epsilon, Initial residual = 0.0905928, Final residual = 0.001213, No Iterations 1
smoothSolver:  Solving for k, Initial residual = 0.00223112, Final residual = 0.000160188, No Iterations 1
ExecutionTime = 7.81713 s  ClockTime = 10 s

Time = 385s

smoothSolver:  Solving for Ux, Initial residual = 0.000215591, Final residual = 2.85858e-06, No Iterations 1
smoothSolver:  Solving for Uy, Initial residual = 0.352977, Final residual = 0.0092261, No Iterations 1
smoothSolver:  Solving for Uz, Initial residual = 0.00126607, Final residual = 1.66022e-05, No Iterations 1
GAMG:  Solving for p, Initial residual = 0.00152799, Final residual = 0.000146822, No Iterations 1
time step continuity errors : sum local = 2.34686e-08, global = -2.86216e-09, cumulative = -0.00186767
smoothSolver:  Solving for epsilon, Initial residual = 0.0905791, Final residual = 0.00121262, No Iterations 1
smoothSolver:  Solving for k, Initial residual = 0.00220937, Final residual = 0.000160178, No Iterations 1
ExecutionTime = 7.83609 s  ClockTime = 10 s

Time = 386s

smoothSolver:  Solving for Ux, Initial residual = 0.000207374, Final residual = 2.58121e-06, No Iterations 1
smoothSolver:  Solving for Uy, Initial residual = 0.293283, Final residual = 0.00721143, No Iterations 1
smoothSolver:  Solving for Uz, Initial residual = 0.00123101, Final residual = 1.51168e-05, No Iterations 1
GAMG:  Solving for p, Initial residual = 0.00153559, Final residual = 0.000145951, No Iterations 1
time step continuity errors : sum local = 2.33335e-08, global = -4.27414e-09, cumulative = -0.00186767
smoothSolver:  Solving for epsilon, Initial residual = 0.0905585, Final residual = 0.0012119, No Iterations 1
smoothSolver:  Solving for k, Initial residual = 0.00224923, Final residual = 0.000160716, No Iterations 1
ExecutionTime = 7.85476 s  ClockTime = 10 s

Time = 387s

smoothSolver:  Solving for Ux, Initial residual = 0.000205979, Final residual = 2.44596e-06, No Iterations 1
smoothSolver:  Solving for Uy, Initial residual = 0.278868, Final residual = 0.00682118, No Iterations 1
smoothSolver:  Solving for Uz, Initial residual = 0.00124211, Final residual = 1.42019e-05, No Iterations 1
GAMG:  Solving for p, Initial residual = 0.00152748, Final residual = 0.000144653, No Iterations 1
time step continuity errors : sum local = 2.31318e-08, global = -3.84476e-09, cumulative = -0.00186768
smoothSolver:  Solving for epsilon, Initial residual = 0.0905501, Final residual = 0.00121165, No Iterations 1
smoothSolver:  Solving for k, Initial residual = 0.00224841, Final residual = 0.000157646, No Iterations 1
ExecutionTime = 7.87345 s  ClockTime = 11 s

Time = 388s

smoothSolver:  Solving for Ux, Initial residual = 0.000213044, Final residual = 2.69905e-06, No Iterations 1
smoothSolver:  Solving for Uy, Initial residual = 0.295178, Final residual = 0.0075575, No Iterations 1
smoothSolver:  Solving for Uz, Initial residual = 0.00123691, Final residual = 1.46572e-05, No Iterations 1
GAMG:  Solving for p, Initial residual = 0.00151871, Final residual = 0.000140538, No Iterations 1
time step continuity errors : sum local = 2.24809e-08, global = -2.57929e-09, cumulative = -0.00186768
smoothSolver:  Solving for epsilon, Initial residual = 0.0905443, Final residual = 0.00121225, No Iterations 1
smoothSolver:  Solving for k, Initial residual = 0.00229271, Final residual = 0.000162577, No Iterations 1
ExecutionTime = 7.89257 s  ClockTime = 11 s

Time = 389s

smoothSolver:  Solving for Ux, Initial residual = 0.00021772, Final residual = 2.86915e-06, No Iterations 1
smoothSolver:  Solving for Uy, Initial residual = 0.301347, Final residual = 0.00767569, No Iterations 1
smoothSolver:  Solving for Uz, Initial residual = 0.00122408, Final residual = 1.48734e-05, No Iterations 1
GAMG:  Solving for p, Initial residual = 0.00151729, Final residual = 0.000142228, No Iterations 1
time step continuity errors : sum local = 2.27548e-08, global = -5.91784e-10, cumulative = -0.00186768
smoothSolver:  Solving for epsilon, Initial residual = 0.0905841, Final residual = 0.00121339, No Iterations 1
smoothSolver:  Solving for k, Initial residual = 0.002328, Final residual = 0.000165562, No Iterations 1
ExecutionTime = 7.91144 s  ClockTime = 11 s

Time = 390s

smoothSolver:  Solving for Ux, Initial residual = 0.000214621, Final residual = 2.75161e-06, No Iterations 1
smoothSolver:  Solving for Uy, Initial residual = 0.298059, Final residual = 0.00729019, No Iterations 1
smoothSolver:  Solving for Uz, Initial residual = 0.00121156, Final residual = 1.43151e-05, No Iterations 1
GAMG:  Solving for p, Initial residual = 0.00149962, Final residual = 0.000145028, No Iterations 1
time step continuity errors : sum local = 2.32048e-08, global = 1.98709e-09, cumulative = -0.00186768
smoothSolver:  Solving for epsilon, Initial residual = 0.0905696, Final residual = 0.00121165, No Iterations 1
smoothSolver:  Solving for k, Initial residual = 0.0023521, Final residual = 0.000165276, No Iterations 1
ExecutionTime = 7.93039 s  ClockTime = 11 s

Time = 391s

smoothSolver:  Solving for Ux, Initial residual = 0.000208769, Final residual = 2.58874e-06, No Iterations 1
smoothSolver:  Solving for Uy, Initial residual = 0.297013, Final residual = 0.00724201, No Iterations 1
smoothSolver:  Solving for Uz, Initial residual = 0.00119185, Final residual = 1.39656e-05, No Iterations 1
GAMG:  Solving for p, Initial residual = 0.00148785, Final residual = 0.000145852, No Iterations 1
time step continuity errors : sum local = 2.33329e-08, global = 4.01407e-09, cumulative = -0.00186767
smoothSolver:  Solving for epsilon, Initial residual = 0.0905731, Final residual = 0.00121255, No Iterations 1
smoothSolver:  Solving for k, Initial residual = 0.0023368, Final residual = 0.000165616, No Iterations 1
ExecutionTime = 7.94927 s  ClockTime = 11 s

Time = 392s

smoothSolver:  Solving for Ux, Initial residual = 0.000214171, Final residual = 2.55286e-06, No Iterations 1
smoothSolver:  Solving for Uy, Initial residual = 0.314658, Final residual = 0.00797693, No Iterations 1
smoothSolver:  Solving for Uz, Initial residual = 0.00119758, Final residual = 1.48714e-05, No Iterations 1
GAMG:  Solving for p, Initial residual = 0.00151791, Final residual = 0.000143685, No Iterations 1
time step continuity errors : sum local = 2.29814e-08, global = 3.98056e-09, cumulative = -0.00186767
smoothSolver:  Solving for epsilon, Initial residual = 0.0905785, Final residual = 0.00121256, No Iterations 1
smoothSolver:  Solving for k, Initial residual = 0.00228436, Final residual = 0.000161841, No Iterations 1
ExecutionTime = 7.96841 s  ClockTime = 11 s

Time = 393s

smoothSolver:  Solving for Ux, Initial residual = 0.000215163, Final residual = 2.67724e-06, No Iterations 1
smoothSolver:  Solving for Uy, Initial residual = 0.315285, Final residual = 0.00815383, No Iterations 1
smoothSolver:  Solving for Uz, Initial residual = 0.00120688, Final residual = 1.53617e-05, No Iterations 1
GAMG:  Solving for p, Initial residual = 0.00152336, Final residual = 0.00014323, No Iterations 1
time step continuity errors : sum local = 2.29004e-08, global = 3.10308e-09, cumulative = -0.00186767
smoothSolver:  Solving for epsilon, Initial residual = 0.0905753, Final residual = 0.00121201, No Iterations 1
smoothSolver:  Solving for k, Initial residual = 0.00220111, Final residual = 0.000156471, No Iterations 1
ExecutionTime = 7.9872 s  ClockTime = 11 s

Time = 394s

smoothSolver:  Solving for Ux, Initial residual = 0.000209758, Final residual = 2.78813e-06, No Iterations 1
smoothSolver:  Solving for Uy, Initial residual = 0.285656, Final residual = 0.00698647, No Iterations 1
smoothSolver:  Solving for Uz, Initial residual = 0.00118849, Final residual = 1.45208e-05, No Iterations 1
GAMG:  Solving for p, Initial residual = 0.00150934, Final residual = 0.000147336, No Iterations 1
time step continuity errors : sum local = 2.35524e-08, global = 8.47835e-10, cumulative = -0.00186767
smoothSolver:  Solving for epsilon, Initial residual = 0.0905818, Final residual = 0.00121386, No Iterations 1
smoothSolver:  Solving for k, Initial residual = 0.00219968, Final residual = 0.000154804, No Iterations 1
ExecutionTime = 8.00598 s  ClockTime = 11 s

Time = 395s

smoothSolver:  Solving for Ux, Initial residual = 0.000206802, Final residual = 2.76982e-06, No Iterations 1
smoothSolver:  Solving for Uy, Initial residual = 0.270759, Final residual = 0.00629969, No Iterations 1
smoothSolver:  Solving for Uz, Initial residual = 0.00117812, Final residual = 1.32883e-05, No Iterations 1
GAMG:  Solving for p, Initial residual = 0.00147767, Final residual = 0.000142347, No Iterations 1
time step continuity errors : sum local = 2.27531e-08, global = -2.56056e-09, cumulative = -0.00186767
smoothSolver:  Solving for epsilon, Initial residual = 0.090575, Final residual = 0.00121208, No Iterations 1
smoothSolver:  Solving for k, Initial residual = 0.00219918, Final residual = 0.000158906, No Iterations 1
ExecutionTime = 8.02521 s  ClockTime = 11 s

Time = 396s

smoothSolver:  Solving for Ux, Initial residual = 0.000206983, Final residual = 2.58271e-06, No Iterations 1
smoothSolver:  Solving for Uy, Initial residual = 0.293113, Final residual = 0.00718978, No Iterations 1
smoothSolver:  Solving for Uz, Initial residual = 0.00122118, Final residual = 1.37835e-05, No Iterations 1
GAMG:  Solving for p, Initial residual = 0.00150283, Final residual = 0.00014313, No Iterations 1
time step continuity errors : sum local = 2.28823e-08, global = -4.526e-09, cumulative = -0.00186767
smoothSolver:  Solving for epsilon, Initial residual = 0.0905456, Final residual = 0.00121115, No Iterations 1
smoothSolver:  Solving for k, Initial residual = 0.00223089, Final residual = 0.000162202, No Iterations 1
ExecutionTime = 8.04451 s  ClockTime = 11 s

Time = 397s

smoothSolver:  Solving for Ux, Initial residual = 0.000211555, Final residual = 2.63067e-06, No Iterations 1
smoothSolver:  Solving for Uy, Initial residual = 0.318406, Final residual = 0.00836719, No Iterations 1
smoothSolver:  Solving for Uz, Initial residual = 0.00124936, Final residual = 1.52922e-05, No Iterations 1
GAMG:  Solving for p, Initial residual = 0.00153782, Final residual = 0.000149324, No Iterations 1
time step continuity errors : sum local = 2.38792e-08, global = -4.19328e-09, cumulative = -0.00186768
smoothSolver:  Solving for epsilon, Initial residual = 0.0905384, Final residual = 0.00121128, No Iterations 1
smoothSolver:  Solving for k, Initial residual = 0.00230938, Final residual = 0.000163763, No Iterations 1
ExecutionTime = 8.06329 s  ClockTime = 11 s

Time = 398s

smoothSolver:  Solving for Ux, Initial residual = 0.000217254, Final residual = 2.88575e-06, No Iterations 1
smoothSolver:  Solving for Uy, Initial residual = 0.30535, Final residual = 0.00785685, No Iterations 1
smoothSolver:  Solving for Uz, Initial residual = 0.00123876, Final residual = 1.54158e-05, No Iterations 1
GAMG:  Solving for p, Initial residual = 0.00160467, Final residual = 0.000156868, No Iterations 1
time step continuity errors : sum local = 2.50969e-08, global = -3.18456e-09, cumulative = -0.00186768
smoothSolver:  Solving for epsilon, Initial residual = 0.0905418, Final residual = 0.00121091, No Iterations 1
smoothSolver:  Solving for k, Initial residual = 0.00234232, Final residual = 0.000162208, No Iterations 1
ExecutionTime = 8.08182 s  ClockTime = 11 s

Time = 399s

smoothSolver:  Solving for Ux, Initial residual = 0.000219181, Final residual = 2.91091e-06, No Iterations 1
smoothSolver:  Solving for Uy, Initial residual = 0.27377, Final residual = 0.00648164, No Iterations 1
smoothSolver:  Solving for Uz, Initial residual = 0.00119451, Final residual = 1.36468e-05, No Iterations 1
GAMG:  Solving for p, Initial residual = 0.00158341, Final residual = 0.000149067, No Iterations 1
time step continuity errors : sum local = 2.38526e-08, global = -5.28818e-11, cumulative = -0.00186768
smoothSolver:  Solving for epsilon, Initial residual = 0.0905649, Final residual = 0.00121201, No Iterations 1
smoothSolver:  Solving for k, Initial residual = 0.00230759, Final residual = 0.000163027, No Iterations 1
ExecutionTime = 8.10059 s  ClockTime = 11 s

Time = 400s

smoothSolver:  Solving for Ux, Initial residual = 0.000217971, Final residual = 2.75597e-06, No Iterations 1
smoothSolver:  Solving for Uy, Initial residual = 0.271788, Final residual = 0.00632495, No Iterations 1
smoothSolver:  Solving for Uz, Initial residual = 0.00116063, Final residual = 1.28892e-05, No Iterations 1
GAMG:  Solving for p, Initial residual = 0.00153295, Final residual = 0.000136591, No Iterations 1
time step continuity errors : sum local = 2.18573e-08, global = 3.55384e-09, cumulative = -0.00186768
smoothSolver:  Solving for epsilon, Initial residual = 0.0905806, Final residual = 0.00121361, No Iterations 1
smoothSolver:  Solving for k, Initial residual = 0.00232694, Final residual = 0.000163092, No Iterations 1
ExecutionTime = 8.13978 s  ClockTime = 11 s

End

