chemkinToFoam: symbol lookup error: /usr/lib/libsolidSpecie.so: undefined symbol: _ZN4Foam8fileName20allowSpaceInFileNameE
