/*---------------------------------------------------------------------------*\
  =========                 |
  \\      /  F ield         | OpenFOAM: The Open Source CFD Toolbox
   \\    /   O peration     | Website:  https://openfoam.org
    \\  /    A nd           | Version:  12
     \\/     M anipulation  |
\*---------------------------------------------------------------------------*/
Build  : 12-cc05c1b03c38
Exec   : chemFoam
Date   : Oct 15 2024
Time   : 05:53:29
Host   : "DESKTOP-KBPC6IC"
PID    : 220514
I/O    : uncollated
Case   : /home/as/openfoam/OpenFOAM-12/test/chemistry/gri
nProcs : 1
sigFpe : Enabling floating point exception trapping (FOAM_SIGFPE).
fileModificationChecking : Monitoring run-time modified files using timeStampMaster (fileModificationSkew 10)
allowSystemOperations : Allowing user-supplied system call operations

// * * * * * * * * * * * * * * * * * * * * * * * * * * * * * * * * * * * * * //
Create time

Constructing zero-dimensional mesh

Reading initial conditions.

Creating base fields for time 0
Reading thermophysical properties



--> FOAM FATAL IO ERROR: 
Cannot open include file "/home/as/openfoam/OpenFOAM-12/test/chemistry/gri/constant/speciesThermo" while reading dictionary "/home/as/openfoam/OpenFOAM-12/test/chemistry/gri/constant/physicalProperties"

file: /home/as/openfoam/OpenFOAM-12/test/chemistry/gri/constant/physicalProperties at line 30.

    From function static bool Foam::functionEntries::includeEntry::execute(Foam::dictionary&, Foam::Istream&)
    in file db/dictionary/functionEntries/includeEntry/includeEntry.C at line 169.

FOAM exiting

