/*---------------------------------------------------------------------------*\
  =========                 |
  \\      /  F ield         | OpenFOAM: The Open Source CFD Toolbox
   \\    /   O peration     | Website:  https://openfoam.org
    \\  /    A nd           | Version:  12
     \\/     M anipulation  |
\*---------------------------------------------------------------------------*/
Build  : 12-cc05c1b03c38
Exec   : boundaryFoam
Date   : Oct 04 2024
Time   : 23:19:40
Host   : "DESKTOP-KBPC6IC"
PID    : 23944
I/O    : uncollated
Case   : /home/as/openfoam/OpenFOAM-12/test/boundaryLayer/boundaryNonNewtonian
nProcs : 1
sigFpe : Enabling floating point exception trapping (FOAM_SIGFPE).
fileModificationChecking : Monitoring run-time modified files using timeStampMaster (fileModificationSkew 10)
allowSystemOperations : Allowing user-supplied system call operations

// * * * * * * * * * * * * * * * * * * * * * * * * * * * * * * * * * * * * * //
Create time

Create mesh for time = 0

Reading field U

Creating face flux

Selecting viscosity model constant
Selecting turbulence model type laminar
Selecting laminar stress model generalisedNewtonian
Selecting generalised Newtonian model CrossPowerLaw
No fvModels present
No fvConstraints present
Generating wall data for patch: lowerWall
    Height to first cell centre y0 = 0.000625

Starting time loop

Time = 1s

DICPCG:  Solving for Ux, Initial residual = 1, Final residual = 9.78668e-08, No Iterations 2
DICPCG:  Solving for Uy, Initial residual = 0, Final residual = 0, No Iterations 0
Uncorrected Ubar = 9.92032, pressure gradient = -470942
Rey = 0.139356, uTau = 188.878, nut+ = 0, nuEff+ = 1000, y+ = 11.8049, u+ = 0.0118049, k+ = 0, epsilon+ = 0, omega+ = 0
ExecutionTime = 0.006229 s  ClockTime = 0 s

Time = 2s

DICPCG:  Solving for Ux, Initial residual = 0.214615, Final residual = 2.75694e-08, No Iterations 3
DICPCG:  Solving for Uy, Initial residual = 0, Final residual = 0, No Iterations 0
Uncorrected Ubar = -12.1461, pressure gradient = 197775
Rey = 0.659006, uTau = 410.738, nut+ = 0, nuEff+ = 1000, y+ = 25.6711, u+ = 0.0256711, k+ = 0, epsilon+ = 0, omega+ = 0
ExecutionTime = 0.006742 s  ClockTime = 0 s

Time = 3s

DICPCG:  Solving for Ux, Initial residual = 0.0455382, Final residual = 9.99359e-07, No Iterations 2
DICPCG:  Solving for Uy, Initial residual = 0, Final residual = 0, No Iterations 0
Uncorrected Ubar = 4.08061, pressure gradient = -78503.5
Rey = 0.283032, uTau = 269.177, nut+ = 0, nuEff+ = 1000, y+ = 16.8236, u+ = 0.0168236, k+ = 0, epsilon+ = 0, omega+ = 0
ExecutionTime = 0.007158 s  ClockTime = 0 s

Time = 4s

DICPCG:  Solving for Ux, Initial residual = 0.0373737, Final residual = 8.21584e-07, No Iterations 2
DICPCG:  Solving for Uy, Initial residual = 0, Final residual = 0, No Iterations 0
Uncorrected Ubar = -1.21359, pressure gradient = 35219.6
Rey = 0.320522, uTau = 286.45, nut+ = 0, nuEff+ = 1000, y+ = 17.9031, u+ = 0.0179031, k+ = 0, epsilon+ = 0, omega+ = 0
ExecutionTime = 0.007568 s  ClockTime = 0 s

Time = 5s

DICPCG:  Solving for Ux, Initial residual = 0.0343054, Final residual = 6.90727e-07, No Iterations 2
DICPCG:  Solving for Uy, Initial residual = 0, Final residual = 0, No Iterations 0
Uncorrected Ubar = 0.410981, pressure gradient = -10063.5
Rey = 0.250907, uTau = 253.441, nut+ = 0, nuEff+ = 1000, y+ = 15.8401, u+ = 0.0158401, k+ = 0, epsilon+ = 0, omega+ = 0
ExecutionTime = 0.007976 s  ClockTime = 0 s

Time = 6s

DICPCG:  Solving for Ux, Initial residual = 0.0292281, Final residual = 6.03069e-07, No Iterations 2
DICPCG:  Solving for Uy, Initial residual = 0, Final residual = 0, No Iterations 0
Uncorrected Ubar = -0.0518745, pressure gradient = 10273.6
Rey = 0.225934, uTau = 240.498, nut+ = 0, nuEff+ = 1000, y+ = 15.0311, u+ = 0.0150311, k+ = 0, epsilon+ = 0, omega+ = 0
ExecutionTime = 0.008403 s  ClockTime = 0 s

Time = 7s

DICPCG:  Solving for Ux, Initial residual = 0.0260103, Final residual = 4.49988e-07, No Iterations 2
DICPCG:  Solving for Uy, Initial residual = 0, Final residual = 0, No Iterations 0
Uncorrected Ubar = 0.057263, pressure gradient = 7323.32
Rey = 0.199843, uTau = 226.185, nut+ = 0, nuEff+ = 1000, y+ = 14.1366, u+ = 0.0141366, k+ = 0, epsilon+ = 0, omega+ = 0
ExecutionTime = 0.009124 s  ClockTime = 0 s

Time = 8s

DICPCG:  Solving for Ux, Initial residual = 0.0231727, Final residual = 3.53774e-07, No Iterations 2
DICPCG:  Solving for Uy, Initial residual = 0, Final residual = 0, No Iterations 0
Uncorrected Ubar = 0.025002, pressure gradient = 820681
Rey = 0.181268, uTau = 215.417, nut+ = 0, nuEff+ = 1000, y+ = 13.4636, u+ = 0.0134636, k+ = 0, epsilon+ = 0, omega+ = 0
ExecutionTime = 0.009577 s  ClockTime = 0 s

Time = 9s

DICPCG:  Solving for Ux, Initial residual = 0.0222126, Final residual = 3.15601e-07, No Iterations 2
DICPCG:  Solving for Uy, Initial residual = 0, Final residual = 0, No Iterations 0
Uncorrected Ubar = 0.0535042, pressure gradient = 669145
Rey = 0.165495, uTau = 205.832, nut+ = 0, nuEff+ = 1000, y+ = 12.8645, u+ = 0.0128645, k+ = 0, epsilon+ = 0, omega+ = 0
ExecutionTime = 0.009988 s  ClockTime = 0 s

Time = 10s

DICPCG:  Solving for Ux, Initial residual = 0.0207507, Final residual = 3.11462e-07, No Iterations 2
DICPCG:  Solving for Uy, Initial residual = 0, Final residual = 0, No Iterations 0
Uncorrected Ubar = 0.0499922, pressure gradient = 669486
Rey = 0.152738, uTau = 197.739, nut+ = 0, nuEff+ = 1000, y+ = 12.3587, u+ = 0.0123587, k+ = 0, epsilon+ = 0, omega+ = 0
ExecutionTime = 0.010396 s  ClockTime = 0 s

Time = 11s

DICPCG:  Solving for Ux, Initial residual = 0.0198101, Final residual = 2.31852e-07, No Iterations 2
DICPCG:  Solving for Uy, Initial residual = 0, Final residual = 0, No Iterations 0
Uncorrected Ubar = 0.0507723, pressure gradient = 635463
Rey = 0.142149, uTau = 190.762, nut+ = 0, nuEff+ = 1000, y+ = 11.9226, u+ = 0.0119226, k+ = 0, epsilon+ = 0, omega+ = 0
ExecutionTime = 0.010801 s  ClockTime = 0 s

Time = 12s

DICPCG:  Solving for Ux, Initial residual = 0.0189888, Final residual = 1.74836e-07, No Iterations 2
DICPCG:  Solving for Uy, Initial residual = 0, Final residual = 0, No Iterations 0
Uncorrected Ubar = 0.0503853, pressure gradient = 618232
Rey = 0.133247, uTau = 184.692, nut+ = 0, nuEff+ = 1000, y+ = 11.5433, u+ = 0.0115433, k+ = 0, epsilon+ = 0, omega+ = 0
ExecutionTime = 0.011261 s  ClockTime = 0 s

Time = 13s

DICPCG:  Solving for Ux, Initial residual = 0.0183946, Final residual = 1.48351e-07, No Iterations 2
DICPCG:  Solving for Uy, Initial residual = 0, Final residual = 0, No Iterations 0
Uncorrected Ubar = 0.0509189, pressure gradient = 576741
Rey = 0.125607, uTau = 179.319, nut+ = 0, nuEff+ = 1000, y+ = 11.2075, u+ = 0.0112075, k+ = 0, epsilon+ = 0, omega+ = 0
ExecutionTime = 0.011675 s  ClockTime = 0 s

Time = 14s

DICPCG:  Solving for Ux, Initial residual = 0.0179185, Final residual = 1.28295e-07, No Iterations 2
DICPCG:  Solving for Uy, Initial residual = 0, Final residual = 0, No Iterations 0
Uncorrected Ubar = 0.050688, pressure gradient = 545796
Rey = 0.118971, uTau = 174.518, nut+ = 0, nuEff+ = 1000, y+ = 10.9074, u+ = 0.0109074, k+ = 0, epsilon+ = 0, omega+ = 0
ExecutionTime = 0.012081 s  ClockTime = 0 s

Time = 15s

DICPCG:  Solving for Ux, Initial residual = 0.0177269, Final residual = 1.9335e-07, No Iterations 2
DICPCG:  Solving for Uy, Initial residual = 0, Final residual = 0, No Iterations 0
Uncorrected Ubar = 0.0515795, pressure gradient = 477116
Rey = 0.113067, uTau = 170.133, nut+ = 0, nuEff+ = 1000, y+ = 10.6333, u+ = 0.0106333, k+ = 0, epsilon+ = 0, omega+ = 0
ExecutionTime = 0.012484 s  ClockTime = 0 s

Time = 16s

DICPCG:  Solving for Ux, Initial residual = 0.017082, Final residual = 1.25556e-07, No Iterations 2
DICPCG:  Solving for Uy, Initial residual = 0, Final residual = 0, No Iterations 0
Uncorrected Ubar = 0.0490598, pressure gradient = 518026
Rey = 0.107917, uTau = 166.213, nut+ = 0, nuEff+ = 1000, y+ = 10.3883, u+ = 0.0103883, k+ = 0, epsilon+ = 0, omega+ = 0
ExecutionTime = 0.012887 s  ClockTime = 0 s

Time = 17s

DICPCG:  Solving for Ux, Initial residual = 0.0167874, Final residual = 9.65423e-08, No Iterations 2
DICPCG:  Solving for Uy, Initial residual = 0, Final residual = 0, No Iterations 0
Uncorrected Ubar = 0.0506841, pressure gradient = 487053
Rey = 0.103236, uTau = 162.568, nut+ = 0, nuEff+ = 1000, y+ = 10.1605, u+ = 0.0101605, k+ = 0, epsilon+ = 0, omega+ = 0
ExecutionTime = 0.013303 s  ClockTime = 0 s

Time = 18s

DICPCG:  Solving for Ux, Initial residual = 0.0164347, Final residual = 8.90286e-08, No Iterations 2
DICPCG:  Solving for Uy, Initial residual = 0, Final residual = 0, No Iterations 0
Uncorrected Ubar = 0.0502866, pressure gradient = 474044
Rey = 0.0989893, uTau = 159.189, nut+ = 0, nuEff+ = 1000, y+ = 9.94934, u+ = 0.00994934, k+ = 0, epsilon+ = 0, omega+ = 0
ExecutionTime = 0.013708 s  ClockTime = 0 s

Time = 19s

DICPCG:  Solving for Ux, Initial residual = 0.0161708, Final residual = 8.37051e-08, No Iterations 2
DICPCG:  Solving for Uy, Initial residual = 0, Final residual = 0, No Iterations 0
Uncorrected Ubar = 0.050425, pressure gradient = 454741
Rey = 0.0950872, uTau = 156.02, nut+ = 0, nuEff+ = 1000, y+ = 9.75127, u+ = 0.00975127, k+ = 0, epsilon+ = 0, omega+ = 0
ExecutionTime = 0.014112 s  ClockTime = 0 s

Time = 20s

DICPCG:  Solving for Ux, Initial residual = 0.0159052, Final residual = 7.92891e-08, No Iterations 2
DICPCG:  Solving for Uy, Initial residual = 0, Final residual = 0, No Iterations 0
Uncorrected Ubar = 0.050336, pressure gradient = 439478
Rey = 0.0914817, uTau = 153.034, nut+ = 0, nuEff+ = 1000, y+ = 9.56461, u+ = 0.00956461, k+ = 0, epsilon+ = 0, omega+ = 0
ExecutionTime = 0.014518 s  ClockTime = 0 s

Time = 21s

DICPCG:  Solving for Ux, Initial residual = 0.0156623, Final residual = 7.65741e-08, No Iterations 2
DICPCG:  Solving for Uy, Initial residual = 0, Final residual = 0, No Iterations 0
Uncorrected Ubar = 0.0503487, pressure gradient = 423645
Rey = 0.0881253, uTau = 150.2, nut+ = 0, nuEff+ = 1000, y+ = 9.38751, u+ = 0.00938751, k+ = 0, epsilon+ = 0, omega+ = 0
ExecutionTime = 0.014922 s  ClockTime = 0 s

Time = 22s

DICPCG:  Solving for Ux, Initial residual = 0.015424, Final residual = 7.43402e-08, No Iterations 2
DICPCG:  Solving for Uy, Initial residual = 0, Final residual = 0, No Iterations 0
Uncorrected Ubar = 0.0503359, pressure gradient = 408422
Rey = 0.0849838, uTau = 147.499, nut+ = 0, nuEff+ = 1000, y+ = 9.21867, u+ = 0.00921867, k+ = 0, epsilon+ = 0, omega+ = 0
ExecutionTime = 0.015435 s  ClockTime = 0 s

Time = 23s

DICPCG:  Solving for Ux, Initial residual = 0.0152819, Final residual = 7.57637e-08, No Iterations 2
DICPCG:  Solving for Uy, Initial residual = 0, Final residual = 0, No Iterations 0
Uncorrected Ubar = 0.0505137, pressure gradient = 385537
Rey = 0.0820175, uTau = 144.902, nut+ = 0, nuEff+ = 1000, y+ = 9.05635, u+ = 0.00905635, k+ = 0, epsilon+ = 0, omega+ = 0
ExecutionTime = 0.015872 s  ClockTime = 0 s

Time = 24s

DICPCG:  Solving for Ux, Initial residual = 0.0151022, Final residual = 1.06996e-07, No Iterations 2
DICPCG:  Solving for Uy, Initial residual = 0, Final residual = 0, No Iterations 0
Uncorrected Ubar = 0.0503973, pressure gradient = 368273
Rey = 0.0792154, uTau = 142.405, nut+ = 0, nuEff+ = 1000, y+ = 8.90031, u+ = 0.00890031, k+ = 0, epsilon+ = 0, omega+ = 0
ExecutionTime = 0.016287 s  ClockTime = 0 s

Time = 25s

DICPCG:  Solving for Ux, Initial residual = 0.0147533, Final residual = 6.8943e-08, No Iterations 2
DICPCG:  Solving for Uy, Initial residual = 0, Final residual = 0, No Iterations 0
Uncorrected Ubar = 0.0499084, pressure gradient = 372398
Rey = 0.076588, uTau = 140.023, nut+ = 0, nuEff+ = 1000, y+ = 8.75146, u+ = 0.00875146, k+ = 0, epsilon+ = 0, omega+ = 0
ExecutionTime = 0.016722 s  ClockTime = 0 s

Time = 26s

DICPCG:  Solving for Ux, Initial residual = 0.0146584, Final residual = 6.8745e-08, No Iterations 2
DICPCG:  Solving for Uy, Initial residual = 0, Final residual = 0, No Iterations 0
Uncorrected Ubar = 0.0505108, pressure gradient = 349565
Rey = 0.0740699, uTau = 137.702, nut+ = 0, nuEff+ = 1000, y+ = 8.60639, u+ = 0.00860639, k+ = 0, epsilon+ = 0, omega+ = 0
ExecutionTime = 0.017132 s  ClockTime = 0 s

Time = 27s

DICPCG:  Solving for Ux, Initial residual = 0.0145849, Final residual = 7.7385e-08, No Iterations 2
DICPCG:  Solving for Uy, Initial residual = 0, Final residual = 0, No Iterations 0
Uncorrected Ubar = 0.0509377, pressure gradient = 310823
Rey = 0.0716346, uTau = 135.42, nut+ = 0, nuEff+ = 1000, y+ = 8.46372, u+ = 0.00846372, k+ = 0, epsilon+ = 0, omega+ = 0
ExecutionTime = 0.017546 s  ClockTime = 0 s

Time = 28s

DICPCG:  Solving for Ux, Initial residual = 0.0141651, Final residual = 8.74152e-08, No Iterations 2
DICPCG:  Solving for Uy, Initial residual = 0, Final residual = 0, No Iterations 0
Uncorrected Ubar = 0.0495158, pressure gradient = 331924
Rey = 0.0693754, uTau = 133.267, nut+ = 0, nuEff+ = 1000, y+ = 8.32919, u+ = 0.00832919, k+ = 0, epsilon+ = 0, omega+ = 0
ExecutionTime = 0.017953 s  ClockTime = 0 s

Time = 29s

DICPCG:  Solving for Ux, Initial residual = 0.0142497, Final residual = 1.60353e-07, No Iterations 2
DICPCG:  Solving for Uy, Initial residual = 0, Final residual = 0, No Iterations 0
Uncorrected Ubar = 0.0514585, pressure gradient = 274668
Rey = 0.0671247, uTau = 131.087, nut+ = 0, nuEff+ = 1000, y+ = 8.19297, u+ = 0.00819297, k+ = 0, epsilon+ = 0, omega+ = 0
ExecutionTime = 0.018356 s  ClockTime = 0 s

Time = 30s

DICPCG:  Solving for Ux, Initial residual = 0.0136874, Final residual = 8.00282e-08, No Iterations 2
DICPCG:  Solving for Uy, Initial residual = 0, Final residual = 0, No Iterations 0
Uncorrected Ubar = 0.0489188, pressure gradient = 322174
Rey = 0.0650876, uTau = 129.083, nut+ = 0, nuEff+ = 1000, y+ = 8.06769, u+ = 0.00806769, k+ = 0, epsilon+ = 0, omega+ = 0
ExecutionTime = 0.018883 s  ClockTime = 0 s

Time = 31s

DICPCG:  Solving for Ux, Initial residual = 0.0139701, Final residual = 1.72248e-07, No Iterations 2
DICPCG:  Solving for Uy, Initial residual = 0, Final residual = 0, No Iterations 0
Uncorrected Ubar = 0.0516381, pressure gradient = 259359
Rey = 0.0630189, uTau = 127.015, nut+ = 0, nuEff+ = 1000, y+ = 7.93844, u+ = 0.00793844, k+ = 0, epsilon+ = 0, omega+ = 0
ExecutionTime = 0.019301 s  ClockTime = 0 s

Time = 32s

DICPCG:  Solving for Ux, Initial residual = 0.0133444, Final residual = 1.03264e-07, No Iterations 2
DICPCG:  Solving for Uy, Initial residual = 0, Final residual = 0, No Iterations 0
Uncorrected Ubar = 0.0490528, pressure gradient = 300448
Rey = 0.061148, uTau = 125.116, nut+ = 0, nuEff+ = 1000, y+ = 7.81972, u+ = 0.00781972, k+ = 0, epsilon+ = 0, omega+ = 0
ExecutionTime = 0.019709 s  ClockTime = 0 s

Time = 33s

DICPCG:  Solving for Ux, Initial residual = 0.0134289, Final residual = 7.93824e-08, No Iterations 2
DICPCG:  Solving for Uy, Initial residual = 0, Final residual = 0, No Iterations 0
Uncorrected Ubar = 0.0507943, pressure gradient = 266320
Rey = 0.0592889, uTau = 123.199, nut+ = 0, nuEff+ = 1000, y+ = 7.69993, u+ = 0.00769993, k+ = 0, epsilon+ = 0, omega+ = 0
ExecutionTime = 0.020149 s  ClockTime = 0 s

Time = 34s

DICPCG:  Solving for Ux, Initial residual = 0.0131094, Final residual = 9.16382e-08, No Iterations 2
DICPCG:  Solving for Uy, Initial residual = 0, Final residual = 0, No Iterations 0
Uncorrected Ubar = 0.0499517, pressure gradient = 268415
Rey = 0.0575305, uTau = 121.358, nut+ = 0, nuEff+ = 1000, y+ = 7.58488, u+ = 0.00758488, k+ = 0, epsilon+ = 0, omega+ = 0
ExecutionTime = 0.020556 s  ClockTime = 0 s

Time = 35s

DICPCG:  Solving for Ux, Initial residual = 0.0130215, Final residual = 1.2922e-07, No Iterations 2
DICPCG:  Solving for Uy, Initial residual = 0, Final residual = 0, No Iterations 0
Uncorrected Ubar = 0.0504205, pressure gradient = 250154
Rey = 0.0558196, uTau = 119.54, nut+ = 0, nuEff+ = 1000, y+ = 7.47125, u+ = 0.00747125, k+ = 0, epsilon+ = 0, omega+ = 0
ExecutionTime = 0.020961 s  ClockTime = 0 s

Time = 36s

DICPCG:  Solving for Ux, Initial residual = 0.0127636, Final residual = 1.51425e-07, No Iterations 2
DICPCG:  Solving for Uy, Initial residual = 0, Final residual = 0, No Iterations 0
Uncorrected Ubar = 0.0500808, pressure gradient = 246651
Rey = 0.054185, uTau = 117.777, nut+ = 0, nuEff+ = 1000, y+ = 7.36104, u+ = 0.00736105, k+ = 0, epsilon+ = 0, omega+ = 0
ExecutionTime = 0.021366 s  ClockTime = 0 s

Time = 37s

DICPCG:  Solving for Ux, Initial residual = 0.0124785, Final residual = 6.10864e-08, No Iterations 2
DICPCG:  Solving for Uy, Initial residual = 0, Final residual = 0, No Iterations 0
Uncorrected Ubar = 0.0498575, pressure gradient = 253000
Rey = 0.0526294, uTau = 116.074, nut+ = 0, nuEff+ = 1000, y+ = 7.25461, u+ = 0.00725461, k+ = 0, epsilon+ = 0, omega+ = 0
ExecutionTime = 0.02218 s  ClockTime = 0 s

Time = 38s

DICPCG:  Solving for Ux, Initial residual = 0.0123077, Final residual = 5.60137e-08, No Iterations 2
DICPCG:  Solving for Uy, Initial residual = 0, Final residual = 0, No Iterations 0
Uncorrected Ubar = 0.0501622, pressure gradient = 245708
Rey = 0.0511245, uTau = 114.402, nut+ = 0, nuEff+ = 1000, y+ = 7.15014, u+ = 0.00715014, k+ = 0, epsilon+ = 0, omega+ = 0
ExecutionTime = 0.022777 s  ClockTime = 0 s

Time = 39s

DICPCG:  Solving for Ux, Initial residual = 0.0120982, Final residual = 5.481e-08, No Iterations 2
DICPCG:  Solving for Uy, Initial residual = 0, Final residual = 0, No Iterations 0
Uncorrected Ubar = 0.0501175, pressure gradient = 240415
Rey = 0.0496763, uTau = 112.77, nut+ = 0, nuEff+ = 1000, y+ = 7.04814, u+ = 0.00704814, k+ = 0, epsilon+ = 0, omega+ = 0
ExecutionTime = 0.023202 s  ClockTime = 0 s

Time = 40s

DICPCG:  Solving for Ux, Initial residual = 0.0119315, Final residual = 5.40618e-08, No Iterations 2
DICPCG:  Solving for Uy, Initial residual = 0, Final residual = 0, No Iterations 0
Uncorrected Ubar = 0.0501535, pressure gradient = 233497
Rey = 0.048279, uTau = 111.173, nut+ = 0, nuEff+ = 1000, y+ = 6.94831, u+ = 0.00694831, k+ = 0, epsilon+ = 0, omega+ = 0
ExecutionTime = 0.023608 s  ClockTime = 0 s

Time = 41s

DICPCG:  Solving for Ux, Initial residual = 0.0118013, Final residual = 5.22405e-08, No Iterations 2
DICPCG:  Solving for Uy, Initial residual = 0, Final residual = 0, No Iterations 0
Uncorrected Ubar = 0.0502468, pressure gradient = 222392
Rey = 0.0469251, uTau = 109.603, nut+ = 0, nuEff+ = 1000, y+ = 6.85019, u+ = 0.00685019, k+ = 0, epsilon+ = 0, omega+ = 0
ExecutionTime = 0.024014 s  ClockTime = 0 s

Time = 42s

DICPCG:  Solving for Ux, Initial residual = 0.0116006, Final residual = 5.1216e-08, No Iterations 2
DICPCG:  Solving for Uy, Initial residual = 0, Final residual = 0, No Iterations 0
Uncorrected Ubar = 0.0500828, pressure gradient = 218667
Rey = 0.0456248, uTau = 108.074, nut+ = 0, nuEff+ = 1000, y+ = 6.75461, u+ = 0.00675461, k+ = 0, epsilon+ = 0, omega+ = 0
ExecutionTime = 0.024525 s  ClockTime = 0 s

Time = 43s

DICPCG:  Solving for Ux, Initial residual = 0.0114378, Final residual = 5.17486e-08, No Iterations 2
DICPCG:  Solving for Uy, Initial residual = 0, Final residual = 0, No Iterations 0
Uncorrected Ubar = 0.0500534, pressure gradient = 216259
Rey = 0.0443743, uTau = 106.582, nut+ = 0, nuEff+ = 1000, y+ = 6.6614, u+ = 0.0066614, k+ = 0, epsilon+ = 0, omega+ = 0
ExecutionTime = 0.024974 s  ClockTime = 0 s

Time = 44s

DICPCG:  Solving for Ux, Initial residual = 0.0113203, Final residual = 5.1216e-08, No Iterations 2
DICPCG:  Solving for Uy, Initial residual = 0, Final residual = 0, No Iterations 0
Uncorrected Ubar = 0.0501558, pressure gradient = 209240
Rey = 0.0431641, uTau = 105.119, nut+ = 0, nuEff+ = 1000, y+ = 6.56994, u+ = 0.00656994, k+ = 0, epsilon+ = 0, omega+ = 0
ExecutionTime = 0.025485 s  ClockTime = 0 s

Time = 45s

DICPCG:  Solving for Ux, Initial residual = 0.0111781, Final residual = 5.03276e-08, No Iterations 2
DICPCG:  Solving for Uy, Initial residual = 0, Final residual = 0, No Iterations 0
Uncorrected Ubar = 0.050099, pressure gradient = 204792
Rey = 0.0419979, uTau = 103.689, nut+ = 0, nuEff+ = 1000, y+ = 6.48058, u+ = 0.00648058, k+ = 0, epsilon+ = 0, omega+ = 0
ExecutionTime = 0.025909 s  ClockTime = 0 s

Time = 46s

DICPCG:  Solving for Ux, Initial residual = 0.0111616, Final residual = 5.25488e-08, No Iterations 2
DICPCG:  Solving for Uy, Initial residual = 0, Final residual = 0, No Iterations 0
Uncorrected Ubar = 0.050054, pressure gradient = 202449
Rey = 0.0408756, uTau = 102.294, nut+ = 0, nuEff+ = 1000, y+ = 6.3934, u+ = 0.0063934, k+ = 0, epsilon+ = 0, omega+ = 0
ExecutionTime = 0.026325 s  ClockTime = 0 s

Time = 47s

DICPCG:  Solving for Ux, Initial residual = 0.0109742, Final residual = 4.88942e-08, No Iterations 2
DICPCG:  Solving for Uy, Initial residual = 0, Final residual = 0, No Iterations 0
Uncorrected Ubar = 0.0502036, pressure gradient = 193353
Rey = 0.0397848, uTau = 100.92, nut+ = 0, nuEff+ = 1000, y+ = 6.30752, u+ = 0.00630752, k+ = 0, epsilon+ = 0, omega+ = 0
ExecutionTime = 0.026734 s  ClockTime = 0 s

Time = 48s

DICPCG:  Solving for Ux, Initial residual = 0.0107947, Final residual = 4.84576e-08, No Iterations 2
DICPCG:  Solving for Uy, Initial residual = 0, Final residual = 0, No Iterations 0
Uncorrected Ubar = 0.0501074, pressure gradient = 188519
Rey = 0.0387333, uTau = 99.5777, nut+ = 0, nuEff+ = 1000, y+ = 6.2236, u+ = 0.00622361, k+ = 0, epsilon+ = 0, omega+ = 0
ExecutionTime = 0.027139 s  ClockTime = 0 s

Time = 49s

DICPCG:  Solving for Ux, Initial residual = 0.0106532, Final residual = 4.76889e-08, No Iterations 2
DICPCG:  Solving for Uy, Initial residual = 0, Final residual = 0, No Iterations 0
Uncorrected Ubar = 0.0501159, pressure gradient = 183299
Rey = 0.0377168, uTau = 98.2625, nut+ = 0, nuEff+ = 1000, y+ = 6.1414, u+ = 0.0061414, k+ = 0, epsilon+ = 0, omega+ = 0
ExecutionTime = 0.027545 s  ClockTime = 0 s

Time = 50s

DICPCG:  Solving for Ux, Initial residual = 0.010514, Final residual = 4.69148e-08, No Iterations 2
DICPCG:  Solving for Uy, Initial residual = 0, Final residual = 0, No Iterations 0
Uncorrected Ubar = 0.0501045, pressure gradient = 178593
Rey = 0.0367349, uTau = 96.9749, nut+ = 0, nuEff+ = 1000, y+ = 6.06093, u+ = 0.00606093, k+ = 0, epsilon+ = 0, omega+ = 0
ExecutionTime = 0.028 s  ClockTime = 0 s

Time = 51s

DICPCG:  Solving for Ux, Initial residual = 0.010385, Final residual = 4.62549e-08, No Iterations 2
DICPCG:  Solving for Uy, Initial residual = 0, Final residual = 0, No Iterations 0
Uncorrected Ubar = 0.0501041, pressure gradient = 173906
Rey = 0.0357857, uTau = 95.7138, nut+ = 0, nuEff+ = 1000, y+ = 5.98211, u+ = 0.00598211, k+ = 0, epsilon+ = 0, omega+ = 0
ExecutionTime = 0.028409 s  ClockTime = 0 s

Time = 52s

DICPCG:  Solving for Ux, Initial residual = 0.0102606, Final residual = 4.56429e-08, No Iterations 2
DICPCG:  Solving for Uy, Initial residual = 0, Final residual = 0, No Iterations 0
Uncorrected Ubar = 0.0500998, pressure gradient = 169414
Rey = 0.034868, uTau = 94.4787, nut+ = 0, nuEff+ = 1000, y+ = 5.90492, u+ = 0.00590492, k+ = 0, epsilon+ = 0, omega+ = 0
ExecutionTime = 0.028815 s  ClockTime = 0 s

Time = 53s

DICPCG:  Solving for Ux, Initial residual = 0.0101457, Final residual = 4.5044e-08, No Iterations 2
DICPCG:  Solving for Uy, Initial residual = 0, Final residual = 0, No Iterations 0
Uncorrected Ubar = 0.0500976, pressure gradient = 165023
Rey = 0.0339807, uTau = 93.2688, nut+ = 0, nuEff+ = 1000, y+ = 5.8293, u+ = 0.0058293, k+ = 0, epsilon+ = 0, omega+ = 0
ExecutionTime = 0.029219 s  ClockTime = 0 s

Time = 54s

DICPCG:  Solving for Ux, Initial residual = 0.0100315, Final residual = 4.44133e-08, No Iterations 2
DICPCG:  Solving for Uy, Initial residual = 0, Final residual = 0, No Iterations 0
Uncorrected Ubar = 0.0500955, pressure gradient = 160728
Rey = 0.0331225, uTau = 92.0835, nut+ = 0, nuEff+ = 1000, y+ = 5.75522, u+ = 0.00575522, k+ = 0, epsilon+ = 0, omega+ = 0
ExecutionTime = 0.029622 s  ClockTime = 0 s

Time = 55s

DICPCG:  Solving for Ux, Initial residual = 0.00991548, Final residual = 4.37105e-08, No Iterations 2
DICPCG:  Solving for Uy, Initial residual = 0, Final residual = 0, No Iterations 0
Uncorrected Ubar = 0.0501002, pressure gradient = 156229
Rey = 0.0322918, uTau = 90.9214, nut+ = 0, nuEff+ = 1000, y+ = 5.68259, u+ = 0.00568259, k+ = 0, epsilon+ = 0, omega+ = 0
ExecutionTime = 0.030025 s  ClockTime = 0 s

Time = 56s

DICPCG:  Solving for Ux, Initial residual = 0.00992211, Final residual = 4.95444e-08, No Iterations 2
DICPCG:  Solving for Uy, Initial residual = 0, Final residual = 0, No Iterations 0
Uncorrected Ubar = 0.0503638, pressure gradient = 140129
Rey = 0.0314711, uTau = 89.7586, nut+ = 0, nuEff+ = 1000, y+ = 5.60991, u+ = 0.00560991, k+ = 0, epsilon+ = 0, omega+ = 0
ExecutionTime = 0.030435 s  ClockTime = 0 s

Time = 57s

DICPCG:  Solving for Ux, Initial residual = 0.0096848, Final residual = 4.21897e-08, No Iterations 2
DICPCG:  Solving for Uy, Initial residual = 0, Final residual = 0, No Iterations 0
Uncorrected Ubar = 0.0498087, pressure gradient = 148532
Rey = 0.0307006, uTau = 88.6531, nut+ = 0, nuEff+ = 1000, y+ = 5.54082, u+ = 0.00554082, k+ = 0, epsilon+ = 0, omega+ = 0
ExecutionTime = 0.03084 s  ClockTime = 0 s

Time = 58s

DICPCG:  Solving for Ux, Initial residual = 0.00971645, Final residual = 5.88742e-08, No Iterations 2
DICPCG:  Solving for Uy, Initial residual = 0, Final residual = 0, No Iterations 0
Uncorrected Ubar = 0.0501061, pressure gradient = 143973
Rey = 0.0299478, uTau = 87.5594, nut+ = 0, nuEff+ = 1000, y+ = 5.47246, u+ = 0.00547246, k+ = 0, epsilon+ = 0, omega+ = 0
ExecutionTime = 0.031243 s  ClockTime = 0 s

Time = 59s

DICPCG:  Solving for Ux, Initial residual = 0.00951065, Final residual = 4.24772e-08, No Iterations 2
DICPCG:  Solving for Uy, Initial residual = 0, Final residual = 0, No Iterations 0
Uncorrected Ubar = 0.0500459, pressure gradient = 141956
Rey = 0.0292219, uTau = 86.4916, nut+ = 0, nuEff+ = 1000, y+ = 5.40573, u+ = 0.00540573, k+ = 0, epsilon+ = 0, omega+ = 0
ExecutionTime = 0.031646 s  ClockTime = 0 s

Time = 60s

DICPCG:  Solving for Ux, Initial residual = 0.00937124, Final residual = 4.15327e-08, No Iterations 2
DICPCG:  Solving for Uy, Initial residual = 0, Final residual = 0, No Iterations 0
Uncorrected Ubar = 0.0500933, pressure gradient = 137802
Rey = 0.0285172, uTau = 85.4424, nut+ = 0, nuEff+ = 1000, y+ = 5.34015, u+ = 0.00534015, k+ = 0, epsilon+ = 0, omega+ = 0
ExecutionTime = 0.032049 s  ClockTime = 0 s

Time = 61s

DICPCG:  Solving for Ux, Initial residual = 0.00924225, Final residual = 4.122e-08, No Iterations 2
DICPCG:  Solving for Uy, Initial residual = 0, Final residual = 0, No Iterations 0
Uncorrected Ubar = 0.0500639, pressure gradient = 134956
Rey = 0.0278357, uTau = 84.4152, nut+ = 0, nuEff+ = 1000, y+ = 5.27595, u+ = 0.00527595, k+ = 0, epsilon+ = 0, omega+ = 0
ExecutionTime = 0.032451 s  ClockTime = 0 s

Time = 62s

DICPCG:  Solving for Ux, Initial residual = 0.00916472, Final residual = 4.14348e-08, No Iterations 2
DICPCG:  Solving for Uy, Initial residual = 0, Final residual = 0, No Iterations 0
Uncorrected Ubar = 0.0500307, pressure gradient = 133591
Rey = 0.0271777, uTau = 83.4116, nut+ = 0, nuEff+ = 1000, y+ = 5.21322, u+ = 0.00521322, k+ = 0, epsilon+ = 0, omega+ = 0
ExecutionTime = 0.032854 s  ClockTime = 0 s

Time = 63s

DICPCG:  Solving for Ux, Initial residual = 0.0094765, Final residual = 7.12668e-08, No Iterations 2
DICPCG:  Solving for Uy, Initial residual = 0, Final residual = 0, No Iterations 0
Uncorrected Ubar = 0.0494357, pressure gradient = 158186
Rey = 0.0265772, uTau = 82.4849, nut+ = 0, nuEff+ = 1000, y+ = 5.15531, u+ = 0.00515531, k+ = 0, epsilon+ = 0, omega+ = 0
ExecutionTime = 0.033292 s  ClockTime = 0 s

Time = 64s

DICPCG:  Solving for Ux, Initial residual = 0.00979115, Final residual = 8.84488e-08, No Iterations 2
DICPCG:  Solving for Uy, Initial residual = 0, Final residual = 0, No Iterations 0
Uncorrected Ubar = 0.0502675, pressure gradient = 146635
Rey = 0.0259643, uTau = 81.5283, nut+ = 0, nuEff+ = 1000, y+ = 5.09552, u+ = 0.00509552, k+ = 0, epsilon+ = 0, omega+ = 0
ExecutionTime = 0.033697 s  ClockTime = 0 s

Time = 65s

DICPCG:  Solving for Ux, Initial residual = 0.00920933, Final residual = 4.50211e-08, No Iterations 2
DICPCG:  Solving for Uy, Initial residual = 0, Final residual = 0, No Iterations 0
Uncorrected Ubar = 0.0507885, pressure gradient = 112344
Rey = 0.0253253, uTau = 80.5188, nut+ = 0, nuEff+ = 1000, y+ = 5.03242, u+ = 0.00503242, k+ = 0, epsilon+ = 0, omega+ = 0
ExecutionTime = 0.0341 s  ClockTime = 0 s

Time = 66s

DICPCG:  Solving for Ux, Initial residual = 0.00885878, Final residual = 5.60439e-08, No Iterations 2
DICPCG:  Solving for Uy, Initial residual = 0, Final residual = 0, No Iterations 0
Uncorrected Ubar = 0.049899, pressure gradient = 116588
Rey = 0.0247305, uTau = 79.5677, nut+ = 0, nuEff+ = 1000, y+ = 4.97298, u+ = 0.00497298, k+ = 0, epsilon+ = 0, omega+ = 0
ExecutionTime = 0.034511 s  ClockTime = 0 s

Time = 67s

DICPCG:  Solving for Ux, Initial residual = 0.00890903, Final residual = 8.11811e-08, No Iterations 2
DICPCG:  Solving for Uy, Initial residual = 0, Final residual = 0, No Iterations 0
Uncorrected Ubar = 0.0502535, pressure gradient = 106259
Rey = 0.024138, uTau = 78.6088, nut+ = 0, nuEff+ = 1000, y+ = 4.91305, u+ = 0.00491305, k+ = 0, epsilon+ = 0, omega+ = 0
ExecutionTime = 0.034916 s  ClockTime = 0 s

Time = 68s

DICPCG:  Solving for Ux, Initial residual = 0.00873778, Final residual = 8.25907e-08, No Iterations 2
DICPCG:  Solving for Uy, Initial residual = 0, Final residual = 0, No Iterations 0
Uncorrected Ubar = 0.0501957, pressure gradient = 98573.4
Rey = 0.0235609, uTau = 77.6633, nut+ = 0, nuEff+ = 1000, y+ = 4.85395, u+ = 0.00485395, k+ = 0, epsilon+ = 0, omega+ = 0
ExecutionTime = 0.035344 s  ClockTime = 0 s

Time = 69s

DICPCG:  Solving for Ux, Initial residual = 0.00898339, Final residual = 2.25222e-07, No Iterations 2
DICPCG:  Solving for Uy, Initial residual = 0, Final residual = 0, No Iterations 0
Uncorrected Ubar = 0.0661137, pressure gradient = 9742.48
Rey = 0.0220031, uTau = 75.052, nut+ = 0, nuEff+ = 1000, y+ = 4.69075, u+ = 0.00469075, k+ = 0, epsilon+ = 0, omega+ = 0
ExecutionTime = 0.035794 s  ClockTime = 0 s

Time = 70s

DICPCG:  Solving for Ux, Initial residual = 0.0152872, Final residual = 1.03836e-07, No Iterations 2
DICPCG:  Solving for Uy, Initial residual = 0, Final residual = 0, No Iterations 0
Uncorrected Ubar = 0.0467317, pressure gradient = 153022
Rey = 0.0217755, uTau = 74.6628, nut+ = 0, nuEff+ = 1000, y+ = 4.66643, u+ = 0.00466643, k+ = 0, epsilon+ = 0, omega+ = 0
ExecutionTime = 0.036204 s  ClockTime = 0 s

Time = 71s

DICPCG:  Solving for Ux, Initial residual = 0.0118999, Final residual = 2.33102e-07, No Iterations 2
DICPCG:  Solving for Uy, Initial residual = 0, Final residual = 0, No Iterations 0
Uncorrected Ubar = 0.0504747, pressure gradient = 132596
Rey = 0.0214155, uTau = 74.043, nut+ = 0, nuEff+ = 1000, y+ = 4.62769, u+ = 0.00462769, k+ = 0, epsilon+ = 0, omega+ = 0
ExecutionTime = 0.036609 s  ClockTime = 0 s

Time = 72s

DICPCG:  Solving for Ux, Initial residual = 0.0106148, Final residual = 1.89547e-07, No Iterations 2
DICPCG:  Solving for Uy, Initial residual = 0, Final residual = 0, No Iterations 0
Uncorrected Ubar = 0.0501921, pressure gradient = 124334
Rey = 0.0210358, uTau = 73.3837, nut+ = 0, nuEff+ = 1000, y+ = 4.58648, u+ = 0.00458648, k+ = 0, epsilon+ = 0, omega+ = 0
ExecutionTime = 0.037012 s  ClockTime = 0 s

Time = 73s

DICPCG:  Solving for Ux, Initial residual = 0.0099796, Final residual = 2.29609e-07, No Iterations 2
DICPCG:  Solving for Uy, Initial residual = 0, Final residual = 0, No Iterations 0
Uncorrected Ubar = 0.0504847, pressure gradient = 104143
Rey = 0.0206221, uTau = 72.6585, nut+ = 0, nuEff+ = 1000, y+ = 4.54116, u+ = 0.00454116, k+ = 0, epsilon+ = 0, omega+ = 0
ExecutionTime = 0.037417 s  ClockTime = 0 s

Time = 74s

DICPCG:  Solving for Ux, Initial residual = 0.00930159, Final residual = 1.24607e-07, No Iterations 2
DICPCG:  Solving for Uy, Initial residual = 0, Final residual = 0, No Iterations 0
Uncorrected Ubar = 0.0499607, pressure gradient = 105827
Rey = 0.0202225, uTau = 71.9512, nut+ = 0, nuEff+ = 1000, y+ = 4.49695, u+ = 0.00449695, k+ = 0, epsilon+ = 0, omega+ = 0
ExecutionTime = 0.03782 s  ClockTime = 0 s

Time = 75s

DICPCG:  Solving for Ux, Initial residual = 0.0090688, Final residual = 6.75638e-08, No Iterations 2
DICPCG:  Solving for Uy, Initial residual = 0, Final residual = 0, No Iterations 0
Uncorrected Ubar = 0.0501484, pressure gradient = 99285.9
Rey = 0.0198165, uTau = 71.2252, nut+ = 0, nuEff+ = 1000, y+ = 4.45157, u+ = 0.00445157, k+ = 0, epsilon+ = 0, omega+ = 0
ExecutionTime = 0.038499 s  ClockTime = 0 s

Time = 76s

DICPCG:  Solving for Ux, Initial residual = 0.00868567, Final residual = 5.223e-08, No Iterations 2
DICPCG:  Solving for Uy, Initial residual = 0, Final residual = 0, No Iterations 0
Uncorrected Ubar = 0.0500609, pressure gradient = 96580.6
Rey = 0.0194165, uTau = 70.5026, nut+ = 0, nuEff+ = 1000, y+ = 4.40641, u+ = 0.00440642, k+ = 0, epsilon+ = 0, omega+ = 0
ExecutionTime = 0.039124 s  ClockTime = 0 s

Time = 77s

DICPCG:  Solving for Ux, Initial residual = 0.00839008, Final residual = 4.55032e-08, No Iterations 2
DICPCG:  Solving for Uy, Initial residual = 0, Final residual = 0, No Iterations 0
Uncorrected Ubar = 0.0500676, pressure gradient = 93568.2
Rey = 0.019022, uTau = 69.7827, nut+ = 0, nuEff+ = 1000, y+ = 4.36142, u+ = 0.00436142, k+ = 0, epsilon+ = 0, omega+ = 0
ExecutionTime = 0.039547 s  ClockTime = 0 s

Time = 78s

DICPCG:  Solving for Ux, Initial residual = 0.00815649, Final residual = 4.14876e-08, No Iterations 2
DICPCG:  Solving for Uy, Initial residual = 0, Final residual = 0, No Iterations 0
Uncorrected Ubar = 0.0500582, pressure gradient = 90972.4
Rey = 0.0186348, uTau = 69.0689, nut+ = 0, nuEff+ = 1000, y+ = 4.31681, u+ = 0.00431681, k+ = 0, epsilon+ = 0, omega+ = 0
ExecutionTime = 0.039954 s  ClockTime = 0 s

Time = 79s

DICPCG:  Solving for Ux, Initial residual = 0.00801223, Final residual = 4.07457e-08, No Iterations 2
DICPCG:  Solving for Uy, Initial residual = 0, Final residual = 0, No Iterations 0
Uncorrected Ubar = 0.0501025, pressure gradient = 86428.3
Rey = 0.0182527, uTau = 68.3571, nut+ = 0, nuEff+ = 1000, y+ = 4.27232, u+ = 0.00427232, k+ = 0, epsilon+ = 0, omega+ = 0
ExecutionTime = 0.04041 s  ClockTime = 0 s

Time = 80s

DICPCG:  Solving for Ux, Initial residual = 0.00800515, Final residual = 1.68278e-07, No Iterations 2
DICPCG:  Solving for Uy, Initial residual = 0, Final residual = 0, No Iterations 0
Uncorrected Ubar = 0.0502997, pressure gradient = 73586.5
Rey = 0.0178647, uTau = 67.6267, nut+ = 0, nuEff+ = 1000, y+ = 4.22667, u+ = 0.00422667, k+ = 0, epsilon+ = 0, omega+ = 0
ExecutionTime = 0.041016 s  ClockTime = 0 s

Time = 81s

DICPCG:  Solving for Ux, Initial residual = 0.00761455, Final residual = 4.43712e-08, No Iterations 2
DICPCG:  Solving for Uy, Initial residual = 0, Final residual = 0, No Iterations 0
Uncorrected Ubar = 0.0497361, pressure gradient = 85183.4
Rey = 0.0175119, uTau = 66.9556, nut+ = 0, nuEff+ = 1000, y+ = 4.18473, u+ = 0.00418473, k+ = 0, epsilon+ = 0, omega+ = 0
ExecutionTime = 0.041458 s  ClockTime = 0 s

Time = 82s

DICPCG:  Solving for Ux, Initial residual = 0.00761903, Final residual = 3.44511e-08, No Iterations 2
DICPCG:  Solving for Uy, Initial residual = 0, Final residual = 0, No Iterations 0
Uncorrected Ubar = 0.0500723, pressure gradient = 81977.7
Rey = 0.0171595, uTau = 66.2785, nut+ = 0, nuEff+ = 1000, y+ = 4.14241, u+ = 0.00414241, k+ = 0, epsilon+ = 0, omega+ = 0
ExecutionTime = 0.041866 s  ClockTime = 0 s

Time = 83s

DICPCG:  Solving for Ux, Initial residual = 0.00750087, Final residual = 3.32401e-08, No Iterations 2
DICPCG:  Solving for Uy, Initial residual = 0, Final residual = 0, No Iterations 0
Uncorrected Ubar = 0.0500201, pressure gradient = 81088
Rey = 0.0168178, uTau = 65.6152, nut+ = 0, nuEff+ = 1000, y+ = 4.10095, u+ = 0.00410095, k+ = 0, epsilon+ = 0, omega+ = 0
ExecutionTime = 0.04227 s  ClockTime = 0 s

Time = 84s

DICPCG:  Solving for Ux, Initial residual = 0.00743869, Final residual = 3.23883e-08, No Iterations 2
DICPCG:  Solving for Uy, Initial residual = 0, Final residual = 0, No Iterations 0
Uncorrected Ubar = 0.0500554, pressure gradient = 78647.8
Rey = 0.0164833, uTau = 64.9593, nut+ = 0, nuEff+ = 1000, y+ = 4.05996, u+ = 0.00405996, k+ = 0, epsilon+ = 0, omega+ = 0
ExecutionTime = 0.042672 s  ClockTime = 0 s

Time = 85s

DICPCG:  Solving for Ux, Initial residual = 0.00738077, Final residual = 3.19293e-08, No Iterations 2
DICPCG:  Solving for Uy, Initial residual = 0, Final residual = 0, No Iterations 0
Uncorrected Ubar = 0.0500533, pressure gradient = 76325.9
Rey = 0.0161567, uTau = 64.3125, nut+ = 0, nuEff+ = 1000, y+ = 4.01953, u+ = 0.00401953, k+ = 0, epsilon+ = 0, omega+ = 0
ExecutionTime = 0.043084 s  ClockTime = 0 s

Time = 86s

DICPCG:  Solving for Ux, Initial residual = 0.00737185, Final residual = 3.6142e-08, No Iterations 2
DICPCG:  Solving for Uy, Initial residual = 0, Final residual = 0, No Iterations 0
Uncorrected Ubar = 0.0500858, pressure gradient = 72695.2
Rey = 0.0158358, uTau = 63.6708, nut+ = 0, nuEff+ = 1000, y+ = 3.97942, u+ = 0.00397942, k+ = 0, epsilon+ = 0, omega+ = 0
ExecutionTime = 0.043554 s  ClockTime = 0 s

Time = 87s

DICPCG:  Solving for Ux, Initial residual = 0.00737031, Final residual = 6.17067e-08, No Iterations 2
DICPCG:  Solving for Uy, Initial residual = 0, Final residual = 0, No Iterations 0
Uncorrected Ubar = 0.050128, pressure gradient = 67567.5
Rey = 0.0155189, uTau = 63.0304, nut+ = 0, nuEff+ = 1000, y+ = 3.9394, u+ = 0.0039394, k+ = 0, epsilon+ = 0, omega+ = 0
ExecutionTime = 0.043963 s  ClockTime = 0 s

Time = 88s

DICPCG:  Solving for Ux, Initial residual = 0.00728851, Final residual = 4.78516e-08, No Iterations 2
DICPCG:  Solving for Uy, Initial residual = 0, Final residual = 0, No Iterations 0
Uncorrected Ubar = 0.0501097, pressure gradient = 63364
Rey = 0.0152083, uTau = 62.3966, nut+ = 0, nuEff+ = 1000, y+ = 3.89978, u+ = 0.00389979, k+ = 0, epsilon+ = 0, omega+ = 0
ExecutionTime = 0.044366 s  ClockTime = 0 s

Time = 89s

DICPCG:  Solving for Ux, Initial residual = 0.00723443, Final residual = 7.3978e-08, No Iterations 2
DICPCG:  Solving for Uy, Initial residual = 0, Final residual = 0, No Iterations 0
Uncorrected Ubar = 0.0504741, pressure gradient = 48578.4
Rey = 0.0148811, uTau = 61.7216, nut+ = 0, nuEff+ = 1000, y+ = 3.8576, u+ = 0.0038576, k+ = 0, epsilon+ = 0, omega+ = 0
ExecutionTime = 0.04477 s  ClockTime = 0 s

Time = 90s

DICPCG:  Solving for Ux, Initial residual = 0.00684475, Final residual = 5.93644e-08, No Iterations 2
DICPCG:  Solving for Uy, Initial residual = 0, Final residual = 0, No Iterations 0
Uncorrected Ubar = 0.0494441, pressure gradient = 71603.4
Rey = 0.0146167, uTau = 61.1709, nut+ = 0, nuEff+ = 1000, y+ = 3.82318, u+ = 0.00382318, k+ = 0, epsilon+ = 0, omega+ = 0
ExecutionTime = 0.045195 s  ClockTime = 0 s

Time = 91s

DICPCG:  Solving for Ux, Initial residual = 0.00732224, Final residual = 1.48758e-07, No Iterations 2
DICPCG:  Solving for Uy, Initial residual = 0, Final residual = 0, No Iterations 0
Uncorrected Ubar = 0.0504284, pressure gradient = 54582.5
Rey = 0.0143197, uTau = 60.5461, nut+ = 0, nuEff+ = 1000, y+ = 3.78413, u+ = 0.00378413, k+ = 0, epsilon+ = 0, omega+ = 0
ExecutionTime = 0.045611 s  ClockTime = 0 s

Time = 92s

DICPCG:  Solving for Ux, Initial residual = 0.00689912, Final residual = 5.09977e-08, No Iterations 2
DICPCG:  Solving for Uy, Initial residual = 0, Final residual = 0, No Iterations 0
Uncorrected Ubar = 0.0497922, pressure gradient = 62879.9
Rey = 0.0140558, uTau = 59.9857, nut+ = 0, nuEff+ = 1000, y+ = 3.74911, u+ = 0.00374911, k+ = 0, epsilon+ = 0, omega+ = 0
ExecutionTime = 0.046016 s  ClockTime = 0 s

Time = 93s

DICPCG:  Solving for Ux, Initial residual = 0.00695572, Final residual = 4.37265e-08, No Iterations 2
DICPCG:  Solving for Uy, Initial residual = 0, Final residual = 0, No Iterations 0
Uncorrected Ubar = 0.0500645, pressure gradient = 60285.6
Rey = 0.0137902, uTau = 59.4163, nut+ = 0, nuEff+ = 1000, y+ = 3.71352, u+ = 0.00371352, k+ = 0, epsilon+ = 0, omega+ = 0
ExecutionTime = 0.046419 s  ClockTime = 0 s

Time = 94s

DICPCG:  Solving for Ux, Initial residual = 0.00685297, Final residual = 7.56452e-08, No Iterations 2
DICPCG:  Solving for Uy, Initial residual = 0, Final residual = 0, No Iterations 0
Uncorrected Ubar = 0.050024, pressure gradient = 59330
Rey = 0.0135325, uTau = 58.8584, nut+ = 0, nuEff+ = 1000, y+ = 3.67865, u+ = 0.00367865, k+ = 0, epsilon+ = 0, omega+ = 0
ExecutionTime = 0.046823 s  ClockTime = 0 s

Time = 95s

DICPCG:  Solving for Ux, Initial residual = 0.00677231, Final residual = 3.69559e-08, No Iterations 2
DICPCG:  Solving for Uy, Initial residual = 0, Final residual = 0, No Iterations 0
Uncorrected Ubar = 0.0499672, pressure gradient = 60673.8
Rey = 0.013285, uTau = 58.3177, nut+ = 0, nuEff+ = 1000, y+ = 3.64485, u+ = 0.00364486, k+ = 0, epsilon+ = 0, omega+ = 0
ExecutionTime = 0.047232 s  ClockTime = 0 s

Time = 96s

DICPCG:  Solving for Ux, Initial residual = 0.0066983, Final residual = 2.85608e-08, No Iterations 2
DICPCG:  Solving for Uy, Initial residual = 0, Final residual = 0, No Iterations 0
Uncorrected Ubar = 0.0499605, pressure gradient = 62373.7
Rey = 0.0130462, uTau = 57.7912, nut+ = 0, nuEff+ = 1000, y+ = 3.61195, u+ = 0.00361195, k+ = 0, epsilon+ = 0, omega+ = 0
ExecutionTime = 0.047638 s  ClockTime = 0 s

Time = 97s

DICPCG:  Solving for Ux, Initial residual = 0.00666464, Final residual = 2.55493e-08, No Iterations 2
DICPCG:  Solving for Uy, Initial residual = 0, Final residual = 0, No Iterations 0
Uncorrected Ubar = 0.0500221, pressure gradient = 61408.5
Rey = 0.0128118, uTau = 57.2697, nut+ = 0, nuEff+ = 1000, y+ = 3.57936, u+ = 0.00357936, k+ = 0, epsilon+ = 0, omega+ = 0
ExecutionTime = 0.048052 s  ClockTime = 0 s

Time = 98s

DICPCG:  Solving for Ux, Initial residual = 0.00659999, Final residual = 2.47302e-08, No Iterations 2
DICPCG:  Solving for Uy, Initial residual = 0, Final residual = 0, No Iterations 0
Uncorrected Ubar = 0.0500178, pressure gradient = 60625.7
Rey = 0.0125833, uTau = 56.7567, nut+ = 0, nuEff+ = 1000, y+ = 3.5473, u+ = 0.0035473, k+ = 0, epsilon+ = 0, omega+ = 0
ExecutionTime = 0.048487 s  ClockTime = 0 s

Time = 99s

DICPCG:  Solving for Ux, Initial residual = 0.00655472, Final residual = 2.45424e-08, No Iterations 2
DICPCG:  Solving for Uy, Initial residual = 0, Final residual = 0, No Iterations 0
Uncorrected Ubar = 0.0500308, pressure gradient = 59271.6
Rey = 0.0123596, uTau = 56.25, nut+ = 0, nuEff+ = 1000, y+ = 3.51563, u+ = 0.00351563, k+ = 0, epsilon+ = 0, omega+ = 0
ExecutionTime = 0.049078 s  ClockTime = 0 s

Time = 100s

DICPCG:  Solving for Ux, Initial residual = 0.00651697, Final residual = 2.59776e-08, No Iterations 2
DICPCG:  Solving for Uy, Initial residual = 0, Final residual = 0, No Iterations 0
Uncorrected Ubar = 0.0500408, pressure gradient = 57483.4
Rey = 0.0121403, uTau = 55.7488, nut+ = 0, nuEff+ = 1000, y+ = 3.4843, u+ = 0.0034843, k+ = 0, epsilon+ = 0, omega+ = 0
ExecutionTime = 0.051921 s  ClockTime = 0 s

Time = 101s

DICPCG:  Solving for Ux, Initial residual = 0.00649934, Final residual = 3.78167e-08, No Iterations 2
DICPCG:  Solving for Uy, Initial residual = 0, Final residual = 0, No Iterations 0
Uncorrected Ubar = 0.0500671, pressure gradient = 54573.9
Rey = 0.0119239, uTau = 55.2496, nut+ = 0, nuEff+ = 999.999, y+ = 3.4531, u+ = 0.0034531, k+ = 0, epsilon+ = 0, omega+ = 0
ExecutionTime = 0.052473 s  ClockTime = 0 s

Time = 102s

DICPCG:  Solving for Ux, Initial residual = 0.00646174, Final residual = 9.31031e-08, No Iterations 2
DICPCG:  Solving for Uy, Initial residual = 0, Final residual = 0, No Iterations 0
Uncorrected Ubar = 0.0500735, pressure gradient = 51439.6
Rey = 0.0117106, uTau = 54.7532, nut+ = 0, nuEff+ = 999.999, y+ = 3.42207, u+ = 0.00342208, k+ = 0, epsilon+ = 0, omega+ = 0
ExecutionTime = 0.052902 s  ClockTime = 0 s

Time = 103s

DICPCG:  Solving for Ux, Initial residual = 0.00636878, Final residual = 1.05303e-07, No Iterations 2
DICPCG:  Solving for Uy, Initial residual = 0, Final residual = 0, No Iterations 0
Uncorrected Ubar = 0.050011, pressure gradient = 50972.2
Rey = 0.0115045, uTau = 54.2693, nut+ = 0, nuEff+ = 999.999, y+ = 3.39183, u+ = 0.00339183, k+ = 0, epsilon+ = 0, omega+ = 0
ExecutionTime = 0.05336 s  ClockTime = 0 s

Time = 104s

DICPCG:  Solving for Ux, Initial residual = 0.00628935, Final residual = 5.57406e-08, No Iterations 2
DICPCG:  Solving for Uy, Initial residual = 0, Final residual = 0, No Iterations 0
Uncorrected Ubar = 0.0499756, pressure gradient = 52021.2
Rey = 0.0113062, uTau = 53.7995, nut+ = 0, nuEff+ = 999.999, y+ = 3.36247, u+ = 0.00336247, k+ = 0, epsilon+ = 0, omega+ = 0
ExecutionTime = 0.053779 s  ClockTime = 0 s

Time = 105s

DICPCG:  Solving for Ux, Initial residual = 0.00621725, Final residual = 2.58969e-08, No Iterations 2
DICPCG:  Solving for Uy, Initial residual = 0, Final residual = 0, No Iterations 0
Uncorrected Ubar = 0.0499718, pressure gradient = 53257
Rey = 0.0111148, uTau = 53.3421, nut+ = 0, nuEff+ = 999.999, y+ = 3.33388, u+ = 0.00333388, k+ = 0, epsilon+ = 0, omega+ = 0
ExecutionTime = 0.054199 s  ClockTime = 0 s

Time = 106s

DICPCG:  Solving for Ux, Initial residual = 0.0061853, Final residual = 2.24483e-08, No Iterations 2
DICPCG:  Solving for Uy, Initial residual = 0, Final residual = 0, No Iterations 0
Uncorrected Ubar = 0.0500129, pressure gradient = 52690.3
Rey = 0.0109272, uTau = 52.8901, nut+ = 0, nuEff+ = 999.999, y+ = 3.30563, u+ = 0.00330563, k+ = 0, epsilon+ = 0, omega+ = 0
ExecutionTime = 0.05463 s  ClockTime = 0 s

Time = 107s

DICPCG:  Solving for Ux, Initial residual = 0.00613326, Final residual = 2.1599e-08, No Iterations 2
DICPCG:  Solving for Uy, Initial residual = 0, Final residual = 0, No Iterations 0
Uncorrected Ubar = 0.0500112, pressure gradient = 52195.2
Rey = 0.0107443, uTau = 52.4455, nut+ = 0, nuEff+ = 999.999, y+ = 3.27784, u+ = 0.00327784, k+ = 0, epsilon+ = 0, omega+ = 0
ExecutionTime = 0.055308 s  ClockTime = 0 s

Time = 108s

DICPCG:  Solving for Ux, Initial residual = 0.00609406, Final residual = 2.13518e-08, No Iterations 2
DICPCG:  Solving for Uy, Initial residual = 0, Final residual = 0, No Iterations 0
Uncorrected Ubar = 0.0500176, pressure gradient = 51417.8
Rey = 0.0105654, uTau = 52.0071, nut+ = 0, nuEff+ = 999.999, y+ = 3.25045, u+ = 0.00325045, k+ = 0, epsilon+ = 0, omega+ = 0
ExecutionTime = 0.055879 s  ClockTime = 0 s

Time = 109s

DICPCG:  Solving for Ux, Initial residual = 0.00606475, Final residual = 2.13293e-08, No Iterations 2
DICPCG:  Solving for Uy, Initial residual = 0, Final residual = 0, No Iterations 0
Uncorrected Ubar = 0.0500172, pressure gradient = 50657.6
Rey = 0.0103907, uTau = 51.5753, nut+ = 0, nuEff+ = 999.999, y+ = 3.22345, u+ = 0.00322346, k+ = 0, epsilon+ = 0, omega+ = 0
ExecutionTime = 0.056313 s  ClockTime = 0 s

Time = 110s

DICPCG:  Solving for Ux, Initial residual = 0.00604885, Final residual = 2.19435e-08, No Iterations 2
DICPCG:  Solving for Uy, Initial residual = 0, Final residual = 0, No Iterations 0
Uncorrected Ubar = 0.050018, pressure gradient = 49865
Rey = 0.0102199, uTau = 51.1496, nut+ = 0, nuEff+ = 999.999, y+ = 3.19685, u+ = 0.00319685, k+ = 0, epsilon+ = 0, omega+ = 0
ExecutionTime = 0.057274 s  ClockTime = 0 s

Time = 111s

DICPCG:  Solving for Ux, Initial residual = 0.00605268, Final residual = 2.3991e-08, No Iterations 2
DICPCG:  Solving for Uy, Initial residual = 0, Final residual = 0, No Iterations 0
Uncorrected Ubar = 0.0500158, pressure gradient = 49174.7
Rey = 0.010053, uTau = 50.7304, nut+ = 0, nuEff+ = 999.999, y+ = 3.17065, u+ = 0.00317065, k+ = 0, epsilon+ = 0, omega+ = 0
ExecutionTime = 0.05783 s  ClockTime = 0 s

Time = 112s

DICPCG:  Solving for Ux, Initial residual = 0.00609764, Final residual = 3.07751e-08, No Iterations 2
DICPCG:  Solving for Uy, Initial residual = 0, Final residual = 0, No Iterations 0
Uncorrected Ubar = 0.050006, pressure gradient = 48915
Rey = 0.0098906, uTau = 50.3189, nut+ = 0, nuEff+ = 999.999, y+ = 3.14493, u+ = 0.00314493, k+ = 0, epsilon+ = 0, omega+ = 0
ExecutionTime = 0.058329 s  ClockTime = 0 s

Time = 113s

DICPCG:  Solving for Ux, Initial residual = 0.00622224, Final residual = 5.25268e-08, No Iterations 2
DICPCG:  Solving for Uy, Initial residual = 0, Final residual = 0, No Iterations 0
Uncorrected Ubar = 0.049969, pressure gradient = 50231.9
Rey = 0.00973444, uTau = 49.9201, nut+ = 0, nuEff+ = 999.999, y+ = 3.12, u+ = 0.00312001, k+ = 0, epsilon+ = 0, omega+ = 0
ExecutionTime = 0.058791 s  ClockTime = 0 s

Time = 114s

DICPCG:  Solving for Ux, Initial residual = 0.00644115, Final residual = 1.26518e-07, No Iterations 2
DICPCG:  Solving for Uy, Initial residual = 0, Final residual = 0, No Iterations 0
Uncorrected Ubar = 0.0499117, pressure gradient = 53878.4
Rey = 0.00958686, uTau = 49.5402, nut+ = 0, nuEff+ = 999.999, y+ = 3.09626, u+ = 0.00309627, k+ = 0, epsilon+ = 0, omega+ = 0
ExecutionTime = 0.059262 s  ClockTime = 0 s

Time = 115s

DICPCG:  Solving for Ux, Initial residual = 0.00659978, Final residual = 2.11984e-07, No Iterations 2
DICPCG:  Solving for Uy, Initial residual = 0, Final residual = 0, No Iterations 0
Uncorrected Ubar = 0.0500037, pressure gradient = 53728.5
Rey = 0.00943999, uTau = 49.1593, nut+ = 0, nuEff+ = 999.999, y+ = 3.07246, u+ = 0.00307246, k+ = 0, epsilon+ = 0, omega+ = 0
ExecutionTime = 0.059706 s  ClockTime = 0 s

Time = 116s

DICPCG:  Solving for Ux, Initial residual = 0.00653828, Final residual = 1.58252e-07, No Iterations 2
DICPCG:  Solving for Uy, Initial residual = 0, Final residual = 0, No Iterations 0
Uncorrected Ubar = 0.0500684, pressure gradient = 50916.2
Rey = 0.00929178, uTau = 48.7718, nut+ = 0, nuEff+ = 999.999, y+ = 3.04824, u+ = 0.00304824, k+ = 0, epsilon+ = 0, omega+ = 0
ExecutionTime = 0.060135 s  ClockTime = 0 s

Time = 117s

DICPCG:  Solving for Ux, Initial residual = 0.0062537, Final residual = 4.41591e-08, No Iterations 2
DICPCG:  Solving for Uy, Initial residual = 0, Final residual = 0, No Iterations 0
Uncorrected Ubar = 0.0501257, pressure gradient = 45594.7
Rey = 0.00914032, uTau = 48.3727, nut+ = 0, nuEff+ = 999.999, y+ = 3.02329, u+ = 0.0030233, k+ = 0, epsilon+ = 0, omega+ = 0
ExecutionTime = 0.060647 s  ClockTime = 0 s

Time = 118s

DICPCG:  Solving for Ux, Initial residual = 0.0059714, Final residual = 2.49266e-08, No Iterations 2
DICPCG:  Solving for Uy, Initial residual = 0, Final residual = 0, No Iterations 0
Uncorrected Ubar = 0.0500287, pressure gradient = 44357.2
Rey = 0.00899327, uTau = 47.982, nut+ = 0, nuEff+ = 999.999, y+ = 2.99888, u+ = 0.00299888, k+ = 0, epsilon+ = 0, omega+ = 0
ExecutionTime = 0.061166 s  ClockTime = 0 s

Time = 119s

DICPCG:  Solving for Ux, Initial residual = 0.00585678, Final residual = 2.20615e-08, No Iterations 2
DICPCG:  Solving for Uy, Initial residual = 0, Final residual = 0, No Iterations 0
Uncorrected Ubar = 0.0500335, pressure gradient = 42906
Rey = 0.00884812, uTau = 47.5932, nut+ = 0, nuEff+ = 999.999, y+ = 2.97458, u+ = 0.00297458, k+ = 0, epsilon+ = 0, omega+ = 0
ExecutionTime = 0.061593 s  ClockTime = 0 s

Time = 120s

DICPCG:  Solving for Ux, Initial residual = 0.00577133, Final residual = 2.02934e-08, No Iterations 2
DICPCG:  Solving for Uy, Initial residual = 0, Final residual = 0, No Iterations 0
Uncorrected Ubar = 0.0500224, pressure gradient = 41932.5
Rey = 0.00870575, uTau = 47.2088, nut+ = 0, nuEff+ = 999.999, y+ = 2.95055, u+ = 0.00295055, k+ = 0, epsilon+ = 0, omega+ = 0
ExecutionTime = 0.062001 s  ClockTime = 0 s

Time = 121s

DICPCG:  Solving for Ux, Initial residual = 0.00571663, Final residual = 2.07111e-08, No Iterations 2
DICPCG:  Solving for Uy, Initial residual = 0, Final residual = 0, No Iterations 0
Uncorrected Ubar = 0.0500254, pressure gradient = 40832.1
Rey = 0.00856581, uTau = 46.8278, nut+ = 0, nuEff+ = 999.999, y+ = 2.92674, u+ = 0.00292674, k+ = 0, epsilon+ = 0, omega+ = 0
ExecutionTime = 0.062407 s  ClockTime = 0 s

Time = 122s

DICPCG:  Solving for Ux, Initial residual = 0.00567128, Final residual = 2.30919e-08, No Iterations 2
DICPCG:  Solving for Uy, Initial residual = 0, Final residual = 0, No Iterations 0
Uncorrected Ubar = 0.0500255, pressure gradient = 39732.2
Rey = 0.00842845, uTau = 46.4508, nut+ = 0, nuEff+ = 999.999, y+ = 2.90318, u+ = 0.00290318, k+ = 0, epsilon+ = 0, omega+ = 0
ExecutionTime = 0.062815 s  ClockTime = 0 s

Time = 123s

DICPCG:  Solving for Ux, Initial residual = 0.00563447, Final residual = 2.94273e-08, No Iterations 2
DICPCG:  Solving for Uy, Initial residual = 0, Final residual = 0, No Iterations 0
Uncorrected Ubar = 0.050028, pressure gradient = 38529.3
Rey = 0.00829357, uTau = 46.0777, nut+ = 0, nuEff+ = 999.998, y+ = 2.87985, u+ = 0.00287986, k+ = 0, epsilon+ = 0, omega+ = 0
ExecutionTime = 0.063221 s  ClockTime = 0 s

Time = 124s

DICPCG:  Solving for Ux, Initial residual = 0.00559913, Final residual = 4.48504e-08, No Iterations 2
DICPCG:  Solving for Uy, Initial residual = 0, Final residual = 0, No Iterations 0
Uncorrected Ubar = 0.0500286, pressure gradient = 37309.6
Rey = 0.00816126, uTau = 45.7086, nut+ = 0, nuEff+ = 999.998, y+ = 2.85679, u+ = 0.00285679, k+ = 0, epsilon+ = 0, omega+ = 0
ExecutionTime = 0.063639 s  ClockTime = 0 s

Time = 125s

DICPCG:  Solving for Ux, Initial residual = 0.00556146, Final residual = 6.22486e-08, No Iterations 2
DICPCG:  Solving for Uy, Initial residual = 0, Final residual = 0, No Iterations 0
Uncorrected Ubar = 0.050026, pressure gradient = 36211.6
Rey = 0.00803172, uTau = 45.3444, nut+ = 0, nuEff+ = 999.998, y+ = 2.83403, u+ = 0.00283403, k+ = 0, epsilon+ = 0, omega+ = 0
ExecutionTime = 0.064048 s  ClockTime = 0 s

Time = 126s

DICPCG:  Solving for Ux, Initial residual = 0.00552081, Final residual = 7.24233e-08, No Iterations 2
DICPCG:  Solving for Uy, Initial residual = 0, Final residual = 0, No Iterations 0
Uncorrected Ubar = 0.0500199, pressure gradient = 35375.4
Rey = 0.00790527, uTau = 44.9861, nut+ = 0, nuEff+ = 999.998, y+ = 2.81163, u+ = 0.00281163, k+ = 0, epsilon+ = 0, omega+ = 0
ExecutionTime = 0.064497 s  ClockTime = 0 s

Time = 127s

DICPCG:  Solving for Ux, Initial residual = 0.00548345, Final residual = 7.26799e-08, No Iterations 2
DICPCG:  Solving for Uy, Initial residual = 0, Final residual = 0, No Iterations 0
Uncorrected Ubar = 0.0500169, pressure gradient = 34668
Rey = 0.0077819, uTau = 44.6337, nut+ = 0, nuEff+ = 999.998, y+ = 2.7896, u+ = 0.00278961, k+ = 0, epsilon+ = 0, omega+ = 0
ExecutionTime = 0.064911 s  ClockTime = 0 s

Time = 128s

DICPCG:  Solving for Ux, Initial residual = 0.00545122, Final residual = 6.82343e-08, No Iterations 2
DICPCG:  Solving for Uy, Initial residual = 0, Final residual = 0, No Iterations 0
Uncorrected Ubar = 0.050018, pressure gradient = 33919.5
Rey = 0.0076614, uTau = 44.2867, nut+ = 0, nuEff+ = 999.998, y+ = 2.76792, u+ = 0.00276793, k+ = 0, epsilon+ = 0, omega+ = 0
ExecutionTime = 0.065341 s  ClockTime = 0 s

Time = 129s

DICPCG:  Solving for Ux, Initial residual = 0.00541601, Final residual = 5.31693e-08, No Iterations 2
DICPCG:  Solving for Uy, Initial residual = 0, Final residual = 0, No Iterations 0
Uncorrected Ubar = 0.0500135, pressure gradient = 33358.8
Rey = 0.00754397, uTau = 43.946, nut+ = 0, nuEff+ = 999.998, y+ = 2.74663, u+ = 0.00274663, k+ = 0, epsilon+ = 0, omega+ = 0
ExecutionTime = 0.065754 s  ClockTime = 0 s

Time = 130s

DICPCG:  Solving for Ux, Initial residual = 0.00538305, Final residual = 3.53307e-08, No Iterations 2
DICPCG:  Solving for Uy, Initial residual = 0, Final residual = 0, No Iterations 0
Uncorrected Ubar = 0.0500115, pressure gradient = 32880.3
Rey = 0.00742954, uTau = 43.6114, nut+ = 0, nuEff+ = 999.998, y+ = 2.72571, u+ = 0.00272572, k+ = 0, epsilon+ = 0, omega+ = 0
ExecutionTime = 0.066163 s  ClockTime = 0 s

Time = 131s

DICPCG:  Solving for Ux, Initial residual = 0.0053528, Final residual = 2.40427e-08, No Iterations 2
DICPCG:  Solving for Uy, Initial residual = 0, Final residual = 0, No Iterations 0
Uncorrected Ubar = 0.0500132, pressure gradient = 32332
Rey = 0.00731781, uTau = 43.2823, nut+ = 0, nuEff+ = 999.998, y+ = 2.70514, u+ = 0.00270515, k+ = 0, epsilon+ = 0, omega+ = 0
ExecutionTime = 0.066571 s  ClockTime = 0 s

Time = 132s

DICPCG:  Solving for Ux, Initial residual = 0.00532305, Final residual = 2.53418e-08, No Iterations 2
DICPCG:  Solving for Uy, Initial residual = 0, Final residual = 0, No Iterations 0
Uncorrected Ubar = 0.0500151, pressure gradient = 31707.1
Rey = 0.00720862, uTau = 42.9581, nut+ = 0, nuEff+ = 999.998, y+ = 2.68488, u+ = 0.00268489, k+ = 0, epsilon+ = 0, omega+ = 0
ExecutionTime = 0.066978 s  ClockTime = 0 s

Time = 133s

DICPCG:  Solving for Ux, Initial residual = 0.00529348, Final residual = 3.4822e-08, No Iterations 2
DICPCG:  Solving for Uy, Initial residual = 0, Final residual = 0, No Iterations 0
Uncorrected Ubar = 0.0500162, pressure gradient = 31041.6
Rey = 0.00710182, uTau = 42.6387, nut+ = 0, nuEff+ = 999.998, y+ = 2.66492, u+ = 0.00266493, k+ = 0, epsilon+ = 0, omega+ = 0
ExecutionTime = 0.067387 s  ClockTime = 0 s

Time = 134s

DICPCG:  Solving for Ux, Initial residual = 0.00526441, Final residual = 4.3512e-08, No Iterations 2
DICPCG:  Solving for Uy, Initial residual = 0, Final residual = 0, No Iterations 0
Uncorrected Ubar = 0.0500165, pressure gradient = 30367.6
Rey = 0.00699735, uTau = 42.324, nut+ = 0, nuEff+ = 999.997, y+ = 2.64525, u+ = 0.00264525, k+ = 0, epsilon+ = 0, omega+ = 0
ExecutionTime = 0.0678 s  ClockTime = 0 s

Time = 135s

DICPCG:  Solving for Ux, Initial residual = 0.00523649, Final residual = 5.12658e-08, No Iterations 2
DICPCG:  Solving for Uy, Initial residual = 0, Final residual = 0, No Iterations 0
Uncorrected Ubar = 0.0500166, pressure gradient = 29695.9
Rey = 0.00689513, uTau = 42.0137, nut+ = 0, nuEff+ = 999.997, y+ = 2.62586, u+ = 0.00262586, k+ = 0, epsilon+ = 0, omega+ = 0
ExecutionTime = 0.068259 s  ClockTime = 0 s

Time = 136s

DICPCG:  Solving for Ux, Initial residual = 0.00521079, Final residual = 5.47643e-08, No Iterations 2
DICPCG:  Solving for Uy, Initial residual = 0, Final residual = 0, No Iterations 0
Uncorrected Ubar = 0.0500175, pressure gradient = 28993.2
Rey = 0.00679503, uTau = 41.7076, nut+ = 0, nuEff+ = 999.997, y+ = 2.60672, u+ = 0.00260673, k+ = 0, epsilon+ = 0, omega+ = 0
ExecutionTime = 0.068666 s  ClockTime = 0 s

Time = 137s

DICPCG:  Solving for Ux, Initial residual = 0.00519213, Final residual = 5.7093e-08, No Iterations 2
DICPCG:  Solving for Uy, Initial residual = 0, Final residual = 0, No Iterations 0
Uncorrected Ubar = 0.0500205, pressure gradient = 28180.3
Rey = 0.0066968, uTau = 41.405, nut+ = 0, nuEff+ = 999.997, y+ = 2.58781, u+ = 0.00258782, k+ = 0, epsilon+ = 0, omega+ = 0
ExecutionTime = 0.069072 s  ClockTime = 0 s

Time = 138s

DICPCG:  Solving for Ux, Initial residual = 0.00517839, Final residual = 5.99309e-08, No Iterations 2
DICPCG:  Solving for Uy, Initial residual = 0, Final residual = 0, No Iterations 0
Uncorrected Ubar = 0.0500264, pressure gradient = 27155.1
Rey = 0.00660011, uTau = 41.105, nut+ = 0, nuEff+ = 999.997, y+ = 2.56906, u+ = 0.00256907, k+ = 0, epsilon+ = 0, omega+ = 0
ExecutionTime = 0.069477 s  ClockTime = 0 s

Time = 139s

DICPCG:  Solving for Ux, Initial residual = 0.00516528, Final residual = 6.00023e-08, No Iterations 2
DICPCG:  Solving for Uy, Initial residual = 0, Final residual = 0, No Iterations 0
Uncorrected Ubar = 0.0500352, pressure gradient = 25826.6
Rey = 0.00650454, uTau = 40.8063, nut+ = 0, nuEff+ = 999.997, y+ = 2.5504, u+ = 0.0025504, k+ = 0, epsilon+ = 0, omega+ = 0
ExecutionTime = 0.069883 s  ClockTime = 0 s

Time = 140s

DICPCG:  Solving for Ux, Initial residual = 0.00514866, Final residual = 5.72948e-08, No Iterations 2
DICPCG:  Solving for Uy, Initial residual = 0, Final residual = 0, No Iterations 0
Uncorrected Ubar = 0.0500445, pressure gradient = 24230.3
Rey = 0.00640979, uTau = 40.508, nut+ = 0, nuEff+ = 999.997, y+ = 2.53175, u+ = 0.00253176, k+ = 0, epsilon+ = 0, omega+ = 0
ExecutionTime = 0.070288 s  ClockTime = 0 s

Time = 141s

DICPCG:  Solving for Ux, Initial residual = 0.00512808, Final residual = 5.82143e-08, No Iterations 2
DICPCG:  Solving for Uy, Initial residual = 0, Final residual = 0, No Iterations 0
Uncorrected Ubar = 0.0500475, pressure gradient = 22628
Rey = 0.00631601, uTau = 40.2106, nut+ = 0, nuEff+ = 999.996, y+ = 2.51316, u+ = 0.00251317, k+ = 0, epsilon+ = 0, omega+ = 0
ExecutionTime = 0.070693 s  ClockTime = 0 s

Time = 142s

DICPCG:  Solving for Ux, Initial residual = 0.00512155, Final residual = 6.48359e-08, No Iterations 2
DICPCG:  Solving for Uy, Initial residual = 0, Final residual = 0, No Iterations 0
Uncorrected Ubar = 0.0500859, pressure gradient = 20030.6
Rey = 0.00622103, uTau = 39.9071, nut+ = 0, nuEff+ = 999.996, y+ = 2.49419, u+ = 0.0024942, k+ = 0, epsilon+ = 0, omega+ = 0
ExecutionTime = 0.071098 s  ClockTime = 0 s

Time = 143s

DICPCG:  Solving for Ux, Initial residual = 0.00507711, Final residual = 5.4506e-08, No Iterations 2
DICPCG:  Solving for Uy, Initial residual = 0, Final residual = 0, No Iterations 0
Uncorrected Ubar = 0.0501725, pressure gradient = 15865.5
Rey = 0.00612114, uTau = 39.5854, nut+ = 0, nuEff+ = 999.996, y+ = 2.47409, u+ = 0.0024741, k+ = 0, epsilon+ = 0, omega+ = 0
ExecutionTime = 0.071511 s  ClockTime = 0 s

Time = 144s

DICPCG:  Solving for Ux, Initial residual = 0.00486599, Final residual = 5.97538e-08, No Iterations 2
DICPCG:  Solving for Uy, Initial residual = 0, Final residual = 0, No Iterations 0
Uncorrected Ubar = 0.0496007, pressure gradient = 31703.5
Rey = 0.0060568, uTau = 39.3768, nut+ = 0, nuEff+ = 999.996, y+ = 2.46105, u+ = 0.00246106, k+ = 0, epsilon+ = 0, omega+ = 0
ExecutionTime = 0.072585 s  ClockTime = 0 s

Time = 145s

DICPCG:  Solving for Ux, Initial residual = 0.00527034, Final residual = 4.01685e-08, No Iterations 2
DICPCG:  Solving for Uy, Initial residual = 0, Final residual = 0, No Iterations 0
Uncorrected Ubar = 0.0502702, pressure gradient = 21802.1
Rey = 0.00596593, uTau = 39.0803, nut+ = 0, nuEff+ = 999.996, y+ = 2.44252, u+ = 0.00244253, k+ = 0, epsilon+ = 0, omega+ = 0
ExecutionTime = 0.073049 s  ClockTime = 0 s

Time = 146s

DICPCG:  Solving for Ux, Initial residual = 0.00500203, Final residual = 3.28948e-08, No Iterations 2
DICPCG:  Solving for Uy, Initial residual = 0, Final residual = 0, No Iterations 0
Uncorrected Ubar = 0.0499496, pressure gradient = 23555.7
Rey = 0.0058883, uTau = 38.8252, nut+ = 0, nuEff+ = 999.996, y+ = 2.42658, u+ = 0.00242659, k+ = 0, epsilon+ = 0, omega+ = 0
ExecutionTime = 0.073462 s  ClockTime = 0 s

Time = 147s

DICPCG:  Solving for Ux, Initial residual = 0.00508408, Final residual = 4.45173e-08, No Iterations 2
DICPCG:  Solving for Uy, Initial residual = 0, Final residual = 0, No Iterations 0
Uncorrected Ubar = 0.0501047, pressure gradient = 20173.3
Rey = 0.00580415, uTau = 38.5468, nut+ = 0, nuEff+ = 999.995, y+ = 2.40918, u+ = 0.00240919, k+ = 0, epsilon+ = 0, omega+ = 0
ExecutionTime = 0.07387 s  ClockTime = 0 s

Time = 148s

DICPCG:  Solving for Ux, Initial residual = 0.0049683, Final residual = 2.41293e-08, No Iterations 2
DICPCG:  Solving for Uy, Initial residual = 0, Final residual = 0, No Iterations 0
Uncorrected Ubar = 0.0499408, pressure gradient = 22189.1
Rey = 0.00572939, uTau = 38.2977, nut+ = 0, nuEff+ = 999.995, y+ = 2.39361, u+ = 0.00239362, k+ = 0, epsilon+ = 0, omega+ = 0
ExecutionTime = 0.074278 s  ClockTime = 0 s

Time = 149s

DICPCG:  Solving for Ux, Initial residual = 0.0050777, Final residual = 3.43487e-08, No Iterations 2
DICPCG:  Solving for Uy, Initial residual = 0, Final residual = 0, No Iterations 0
Uncorrected Ubar = 0.0501647, pressure gradient = 17259.2
Rey = 0.00564401, uTau = 38.0113, nut+ = 0, nuEff+ = 999.995, y+ = 2.37571, u+ = 0.00237572, k+ = 0, epsilon+ = 0, omega+ = 0
ExecutionTime = 0.074682 s  ClockTime = 0 s

Time = 150s

DICPCG:  Solving for Ux, Initial residual = 0.00488837, Final residual = 5.63793e-08, No Iterations 2
DICPCG:  Solving for Uy, Initial residual = 0, Final residual = 0, No Iterations 0
Uncorrected Ubar = 0.049881, pressure gradient = 21197.2
Rey = 0.00557448, uTau = 37.7764, nut+ = 0, nuEff+ = 999.995, y+ = 2.36103, u+ = 0.00236104, k+ = 0, epsilon+ = 0, omega+ = 0
ExecutionTime = 0.075088 s  ClockTime = 0 s

Time = 151s

DICPCG:  Solving for Ux, Initial residual = 0.00506655, Final residual = 7.54938e-08, No Iterations 2
DICPCG:  Solving for Uy, Initial residual = 0, Final residual = 0, No Iterations 0
Uncorrected Ubar = 0.0502081, pressure gradient = 15356.6
Rey = 0.00548932, uTau = 37.4868, nut+ = 0, nuEff+ = 999.995, y+ = 2.34292, u+ = 0.00234294, k+ = 0, epsilon+ = 0, omega+ = 0
ExecutionTime = 0.075657 s  ClockTime = 0 s

Time = 152s

DICPCG:  Solving for Ux, Initial residual = 0.00484538, Final residual = 6.32773e-08, No Iterations 2
DICPCG:  Solving for Uy, Initial residual = 0, Final residual = 0, No Iterations 0
Uncorrected Ubar = 0.049835, pressure gradient = 20682.4
Rey = 0.00542499, uTau = 37.2665, nut+ = 0, nuEff+ = 999.994, y+ = 2.32915, u+ = 0.00232917, k+ = 0, epsilon+ = 0, omega+ = 0
ExecutionTime = 0.076078 s  ClockTime = 0 s

Time = 153s

DICPCG:  Solving for Ux, Initial residual = 0.00506453, Final residual = 8.99679e-08, No Iterations 2
DICPCG:  Solving for Uy, Initial residual = 0, Final residual = 0, No Iterations 0
Uncorrected Ubar = 0.0502082, pressure gradient = 14902.2
Rey = 0.00534306, uTau = 36.984, nut+ = 0, nuEff+ = 999.994, y+ = 2.3115, u+ = 0.00231151, k+ = 0, epsilon+ = 0, omega+ = 0
ExecutionTime = 0.076515 s  ClockTime = 0 s

Time = 154s

DICPCG:  Solving for Ux, Initial residual = 0.00487105, Final residual = 7.85341e-08, No Iterations 2
DICPCG:  Solving for Uy, Initial residual = 0, Final residual = 0, No Iterations 0
Uncorrected Ubar = 0.0499255, pressure gradient = 17021.8
Rey = 0.00527623, uTau = 36.752, nut+ = 0, nuEff+ = 999.994, y+ = 2.297, u+ = 0.00229701, k+ = 0, epsilon+ = 0, omega+ = 0
ExecutionTime = 0.076929 s  ClockTime = 0 s

Time = 155s

DICPCG:  Solving for Ux, Initial residual = 0.00493322, Final residual = 7.18854e-08, No Iterations 2
DICPCG:  Solving for Uy, Initial residual = 0, Final residual = 0, No Iterations 0
Uncorrected Ubar = 0.0500077, pressure gradient = 16794.2
Rey = 0.00520733, uTau = 36.5112, nut+ = 0, nuEff+ = 999.994, y+ = 2.28195, u+ = 0.00228197, k+ = 0, epsilon+ = 0, omega+ = 0
ExecutionTime = 0.077336 s  ClockTime = 0 s

Time = 156s

DICPCG:  Solving for Ux, Initial residual = 0.00495059, Final residual = 6.87356e-08, No Iterations 2
DICPCG:  Solving for Uy, Initial residual = 0, Final residual = 0, No Iterations 0
Uncorrected Ubar = 0.0500321, pressure gradient = 15879
Rey = 0.00513823, uTau = 36.2681, nut+ = 0, nuEff+ = 999.993, y+ = 2.26676, u+ = 0.00226677, k+ = 0, epsilon+ = 0, omega+ = 0
ExecutionTime = 0.077741 s  ClockTime = 0 s

Time = 157s

DICPCG:  Solving for Ux, Initial residual = 0.00495781, Final residual = 6.43177e-08, No Iterations 2
DICPCG:  Solving for Uy, Initial residual = 0, Final residual = 0, No Iterations 0
Uncorrected Ubar = 0.0500611, pressure gradient = 14258
Rey = 0.00506811, uTau = 36.0198, nut+ = 0, nuEff+ = 999.993, y+ = 2.25124, u+ = 0.00225125, k+ = 0, epsilon+ = 0, omega+ = 0
ExecutionTime = 0.078148 s  ClockTime = 0 s

Time = 158s

DICPCG:  Solving for Ux, Initial residual = 0.00493827, Final residual = 6.48379e-08, No Iterations 2
DICPCG:  Solving for Uy, Initial residual = 0, Final residual = 0, No Iterations 0
Uncorrected Ubar = 0.0500512, pressure gradient = 13006.3
Rey = 0.00499897, uTau = 35.7733, nut+ = 0, nuEff+ = 999.993, y+ = 2.23583, u+ = 0.00223585, k+ = 0, epsilon+ = 0, omega+ = 0
ExecutionTime = 0.078553 s  ClockTime = 0 s

Time = 159s

DICPCG:  Solving for Ux, Initial residual = 0.00493929, Final residual = 7.56761e-08, No Iterations 2
DICPCG:  Solving for Uy, Initial residual = 0, Final residual = 0, No Iterations 0
Uncorrected Ubar = 0.0502372, pressure gradient = 8959.28
Rey = 0.00491887, uTau = 35.4855, nut+ = 0, nuEff+ = 999.993, y+ = 2.21784, u+ = 0.00221786, k+ = 0, epsilon+ = 0, omega+ = 0
ExecutionTime = 0.07896 s  ClockTime = 0 s

Time = 160s

DICPCG:  Solving for Ux, Initial residual = 0.00482363, Final residual = 7.02245e-08, No Iterations 2
DICPCG:  Solving for Uy, Initial residual = 0, Final residual = 0, No Iterations 0
Uncorrected Ubar = 0.0496562, pressure gradient = 18143.2
Rey = 0.00487488, uTau = 35.3265, nut+ = 0, nuEff+ = 999.992, y+ = 2.2079, u+ = 0.00220792, k+ = 0, epsilon+ = 0, omega+ = 0
ExecutionTime = 0.079367 s  ClockTime = 0 s

Time = 161s

DICPCG:  Solving for Ux, Initial residual = 0.0051354, Final residual = 8.53699e-08, No Iterations 2
DICPCG:  Solving for Uy, Initial residual = 0, Final residual = 0, No Iterations 0
Uncorrected Ubar = 0.050253, pressure gradient = 12015.6
Rey = 0.00480095, uTau = 35.0576, nut+ = 0, nuEff+ = 999.992, y+ = 2.1911, u+ = 0.00219112, k+ = 0, epsilon+ = 0, omega+ = 0
ExecutionTime = 0.079773 s  ClockTime = 0 s

Time = 162s

DICPCG:  Solving for Ux, Initial residual = 0.00493923, Final residual = 6.98519e-08, No Iterations 2
DICPCG:  Solving for Uy, Initial residual = 0, Final residual = 0, No Iterations 0
Uncorrected Ubar = 0.0498939, pressure gradient = 14647.6
Rey = 0.00474662, uTau = 34.8586, nut+ = 0, nuEff+ = 999.992, y+ = 2.17867, u+ = 0.00217868, k+ = 0, epsilon+ = 0, omega+ = 0
ExecutionTime = 0.080184 s  ClockTime = 0 s

Time = 163s

DICPCG:  Solving for Ux, Initial residual = 0.00510511, Final residual = 9.84867e-08, No Iterations 2
DICPCG:  Solving for Uy, Initial residual = 0, Final residual = 0, No Iterations 0
Uncorrected Ubar = 0.0501101, pressure gradient = 12138.8
Rey = 0.00468153, uTau = 34.6188, nut+ = 0, nuEff+ = 999.991, y+ = 2.16367, u+ = 0.00216369, k+ = 0, epsilon+ = 0, omega+ = 0
ExecutionTime = 0.080591 s  ClockTime = 0 s

Time = 164s

DICPCG:  Solving for Ux, Initial residual = 0.00505354, Final residual = 9.75324e-08, No Iterations 2
DICPCG:  Solving for Uy, Initial residual = 0, Final residual = 0, No Iterations 0
Uncorrected Ubar = 0.0499128, pressure gradient = 14228.7
Rey = 0.00462832, uTau = 34.4215, nut+ = 0, nuEff+ = 999.991, y+ = 2.15134, u+ = 0.00215136, k+ = 0, epsilon+ = 0, omega+ = 0
ExecutionTime = 0.081027 s  ClockTime = 0 s

Time = 165s

DICPCG:  Solving for Ux, Initial residual = 0.00519782, Final residual = 1.07415e-07, No Iterations 2
DICPCG:  Solving for Uy, Initial residual = 0, Final residual = 0, No Iterations 0
Uncorrected Ubar = 0.0500407, pressure gradient = 13264.6
Rey = 0.00456946, uTau = 34.2019, nut+ = 0, nuEff+ = 999.991, y+ = 2.13762, u+ = 0.00213764, k+ = 0, epsilon+ = 0, omega+ = 0
ExecutionTime = 0.081441 s  ClockTime = 0 s

Time = 166s

DICPCG:  Solving for Ux, Initial residual = 0.00524178, Final residual = 1.16116e-07, No Iterations 2
DICPCG:  Solving for Uy, Initial residual = 0, Final residual = 0, No Iterations 0
Uncorrected Ubar = 0.050008, pressure gradient = 13081.4
Rey = 0.00451304, uTau = 33.9901, nut+ = 0, nuEff+ = 999.99, y+ = 2.12438, u+ = 0.0021244, k+ = 0, epsilon+ = 0, omega+ = 0
ExecutionTime = 0.081848 s  ClockTime = 0 s

Time = 167s

DICPCG:  Solving for Ux, Initial residual = 0.00533027, Final residual = 1.49279e-07, No Iterations 2
DICPCG:  Solving for Uy, Initial residual = 0, Final residual = 0, No Iterations 0
Uncorrected Ubar = 0.0501519, pressure gradient = 10200.8
Rey = 0.0044485, uTau = 33.7462, nut+ = 0, nuEff+ = 999.99, y+ = 2.10914, u+ = 0.00210916, k+ = 0, epsilon+ = 0, omega+ = 0
ExecutionTime = 0.082253 s  ClockTime = 0 s

Time = 168s

DICPCG:  Solving for Ux, Initial residual = 0.00536959, Final residual = 1.83494e-07, No Iterations 2
DICPCG:  Solving for Uy, Initial residual = 0, Final residual = 0, No Iterations 0
Uncorrected Ubar = 0.0519786, pressure gradient = 778.26
Rey = 0.00426934, uTau = 33.0596, nut+ = 0, nuEff+ = 999.989, y+ = 2.06623, u+ = 0.00206625, k+ = 0, epsilon+ = 0, omega+ = 0
ExecutionTime = 0.08266 s  ClockTime = 0 s

Time = 169s

DICPCG:  Solving for Ux, Initial residual = 0.0056825, Final residual = 2.35531e-07, No Iterations 2
DICPCG:  Solving for Uy, Initial residual = 0, Final residual = 0, No Iterations 0
Uncorrected Ubar = 0.0492745, pressure gradient = 25746.8
Rey = 0.00427379, uTau = 33.0768, nut+ = 0, nuEff+ = 999.988, y+ = 2.0673, u+ = 0.00206733, k+ = 0, epsilon+ = 0, omega+ = 0
ExecutionTime = 0.083066 s  ClockTime = 0 s

Time = 170s

DICPCG:  Solving for Ux, Initial residual = 0.00583462, Final residual = 2.21706e-07, No Iterations 2
DICPCG:  Solving for Uy, Initial residual = 0, Final residual = 0, No Iterations 0
Uncorrected Ubar = 0.0502952, pressure gradient = 15753.2
Rey = 0.00422944, uTau = 32.9048, nut+ = 0, nuEff+ = 999.988, y+ = 2.05655, u+ = 0.00205657, k+ = 0, epsilon+ = 0, omega+ = 0
ExecutionTime = 0.083501 s  ClockTime = 0 s

Time = 171s

DICPCG:  Solving for Ux, Initial residual = 0.00537295, Final residual = 1.99444e-07, No Iterations 2
DICPCG:  Solving for Uy, Initial residual = 0, Final residual = 0, No Iterations 0
Uncorrected Ubar = 0.049936, pressure gradient = 17775.2
Rey = 0.00419569, uTau = 32.7732, nut+ = 0, nuEff+ = 999.988, y+ = 2.04833, u+ = 0.00204835, k+ = 0, epsilon+ = 0, omega+ = 0
ExecutionTime = 0.083915 s  ClockTime = 0 s

Time = 172s

DICPCG:  Solving for Ux, Initial residual = 0.0053616, Final residual = 1.75333e-07, No Iterations 2
DICPCG:  Solving for Uy, Initial residual = 0, Final residual = 0, No Iterations 0
Uncorrected Ubar = 0.0501614, pressure gradient = 13438.5
Rey = 0.00414702, uTau = 32.5826, nut+ = 0, nuEff+ = 999.987, y+ = 2.03641, u+ = 0.00203644, k+ = 0, epsilon+ = 0, omega+ = 0
ExecutionTime = 0.084331 s  ClockTime = 0 s

Time = 173s

DICPCG:  Solving for Ux, Initial residual = 0.00523902, Final residual = 1.31214e-07, No Iterations 2
DICPCG:  Solving for Uy, Initial residual = 0, Final residual = 0, No Iterations 0
Uncorrected Ubar = 0.0511693, pressure gradient = 3712.42
Rey = 0.00403082, uTau = 32.1229, nut+ = 0, nuEff+ = 999.987, y+ = 2.00768, u+ = 0.0020077, k+ = 0, epsilon+ = 0, omega+ = 0
ExecutionTime = 0.08474 s  ClockTime = 0 s

Time = 174s

DICPCG:  Solving for Ux, Initial residual = 0.006411, Final residual = 9.1373e-08, No Iterations 2
DICPCG:  Solving for Uy, Initial residual = 0, Final residual = 0, No Iterations 0
Uncorrected Ubar = 0.0494548, pressure gradient = 21609.7
Rey = 0.00402433, uTau = 32.097, nut+ = 0, nuEff+ = 999.986, y+ = 2.00606, u+ = 0.00200609, k+ = 0, epsilon+ = 0, omega+ = 0
ExecutionTime = 0.085146 s  ClockTime = 0 s

Time = 175s

DICPCG:  Solving for Ux, Initial residual = 0.00617819, Final residual = 1.41177e-07, No Iterations 2
DICPCG:  Solving for Uy, Initial residual = 0, Final residual = 0, No Iterations 0
Uncorrected Ubar = 0.0503939, pressure gradient = 10545.2
Rey = 0.00396983, uTau = 31.8789, nut+ = 0, nuEff+ = 999.986, y+ = 1.99243, u+ = 0.00199246, k+ = 0, epsilon+ = 0, omega+ = 0
ExecutionTime = 0.085575 s  ClockTime = 0 s

Time = 176s

DICPCG:  Solving for Ux, Initial residual = 0.005348, Final residual = 1.79938e-07, No Iterations 2
DICPCG:  Solving for Uy, Initial residual = 0, Final residual = 0, No Iterations 0
Uncorrected Ubar = 0.0498575, pressure gradient = 14646.3
Rey = 0.00393848, uTau = 31.7527, nut+ = 0, nuEff+ = 999.985, y+ = 1.98455, u+ = 0.00198457, k+ = 0, epsilon+ = 0, omega+ = 0
ExecutionTime = 0.085981 s  ClockTime = 0 s

Time = 177s

DICPCG:  Solving for Ux, Initial residual = 0.00532042, Final residual = 1.94215e-07, No Iterations 2
DICPCG:  Solving for Uy, Initial residual = 0, Final residual = 0, No Iterations 0
Uncorrected Ubar = 0.0501947, pressure gradient = 9883.84
Rey = 0.00388751, uTau = 31.5466, nut+ = 0, nuEff+ = 999.985, y+ = 1.97166, u+ = 0.00197169, k+ = 0, epsilon+ = 0, omega+ = 0
ExecutionTime = 0.086387 s  ClockTime = 0 s

Time = 178s

DICPCG:  Solving for Ux, Initial residual = 0.00505704, Final residual = 1.41249e-07, No Iterations 2
DICPCG:  Solving for Uy, Initial residual = 0, Final residual = 0, No Iterations 0
Uncorrected Ubar = 0.049941, pressure gradient = 11355.7
Rey = 0.00384844, uTau = 31.3876, nut+ = 0, nuEff+ = 999.984, y+ = 1.96173, u+ = 0.00196176, k+ = 0, epsilon+ = 0, omega+ = 0
ExecutionTime = 0.086839 s  ClockTime = 0 s

Time = 179s

DICPCG:  Solving for Ux, Initial residual = 0.0050874, Final residual = 1.44086e-07, No Iterations 2
DICPCG:  Solving for Uy, Initial residual = 0, Final residual = 0, No Iterations 0
Uncorrected Ubar = 0.0501978, pressure gradient = 7461.81
Rey = 0.00379382, uTau = 31.1641, nut+ = 0, nuEff+ = 999.984, y+ = 1.94776, u+ = 0.00194779, k+ = 0, epsilon+ = 0, omega+ = 0
ExecutionTime = 0.087251 s  ClockTime = 0 s

Time = 180s

DICPCG:  Solving for Ux, Initial residual = 0.00498117, Final residual = 8.45408e-08, No Iterations 2
DICPCG:  Solving for Uy, Initial residual = 0, Final residual = 0, No Iterations 0
Uncorrected Ubar = 0.0499594, pressure gradient = 8237.62
Rey = 0.00375202, uTau = 30.9919, nut+ = 0, nuEff+ = 999.983, y+ = 1.937, u+ = 0.00193703, k+ = 0, epsilon+ = 0, omega+ = 0
ExecutionTime = 0.087689 s  ClockTime = 0 s

Time = 181s

DICPCG:  Solving for Ux, Initial residual = 0.00507007, Final residual = 9.13346e-08, No Iterations 2
DICPCG:  Solving for Uy, Initial residual = 0, Final residual = 0, No Iterations 0
Uncorrected Ubar = 0.0504039, pressure gradient = 3562.56
Rey = 0.00368289, uTau = 30.7051, nut+ = 0, nuEff+ = 999.982, y+ = 1.91907, u+ = 0.0019191, k+ = 0, epsilon+ = 0, omega+ = 0
ExecutionTime = 0.088625 s  ClockTime = 0 s

Time = 182s

DICPCG:  Solving for Ux, Initial residual = 0.00491091, Final residual = 7.19998e-08, No Iterations 2
DICPCG:  Solving for Uy, Initial residual = 0, Final residual = 0, No Iterations 0
Uncorrected Ubar = 0.049984, pressure gradient = 3684.09
Rey = 0.00364001, uTau = 30.5258, nut+ = 0, nuEff+ = 999.981, y+ = 1.90786, u+ = 0.0019079, k+ = 0, epsilon+ = 0, omega+ = 0
ExecutionTime = 0.089362 s  ClockTime = 0 s

Time = 183s

DICPCG:  Solving for Ux, Initial residual = 0.0049206, Final residual = 9.66915e-08, No Iterations 2
DICPCG:  Solving for Uy, Initial residual = 0, Final residual = 0, No Iterations 0
Uncorrected Ubar = 0.0496783, pressure gradient = 11450.5
Rey = 0.00361603, uTau = 30.4251, nut+ = 0, nuEff+ = 999.981, y+ = 1.90157, u+ = 0.0019016, k+ = 0, epsilon+ = 0, omega+ = 0
ExecutionTime = 0.089797 s  ClockTime = 0 s

Time = 184s

DICPCG:  Solving for Ux, Initial residual = 0.00504906, Final residual = 1.09791e-07, No Iterations 2
DICPCG:  Solving for Uy, Initial residual = 0, Final residual = 0, No Iterations 0
Uncorrected Ubar = 0.0502329, pressure gradient = 6659.97
Rey = 0.0035624, uTau = 30.1986, nut+ = 0, nuEff+ = 999.98, y+ = 1.88741, u+ = 0.00188745, k+ = 0, epsilon+ = 0, omega+ = 0
ExecutionTime = 0.090211 s  ClockTime = 0 s

Time = 185s

DICPCG:  Solving for Ux, Initial residual = 0.00500599, Final residual = 1.00429e-07, No Iterations 2
DICPCG:  Solving for Uy, Initial residual = 0, Final residual = 0, No Iterations 0
Uncorrected Ubar = 0.050725, pressure gradient = 2106.97
Rey = 0.00347574, uTau = 29.829, nut+ = 0, nuEff+ = 999.979, y+ = 1.86431, u+ = 0.00186435, k+ = 0, epsilon+ = 0, omega+ = 0
ExecutionTime = 0.090621 s  ClockTime = 0 s

Time = 186s

DICPCG:  Solving for Ux, Initial residual = 0.00538344, Final residual = 1.84018e-07, No Iterations 2
DICPCG:  Solving for Uy, Initial residual = 0, Final residual = 0, No Iterations 0
Uncorrected Ubar = 0.0495489, pressure gradient = 11455.1
Rey = 0.00346671, uTau = 29.7902, nut+ = 0, nuEff+ = 999.978, y+ = 1.86189, u+ = 0.00186193, k+ = 0, epsilon+ = 0, omega+ = 0
ExecutionTime = 0.09103 s  ClockTime = 0 s

Time = 187s

[...]

Time = 954s

DICPCG:  Solving for Ux, Initial residual = 2.02213e-05, Final residual = 3.77748e-09, No Iterations 1
DICPCG:  Solving for Uy, Initial residual = 0, Final residual = 0, No Iterations 0
Uncorrected Ubar = 0.05, pressure gradient = 210.377
Rey = 9.18387e-05, uTau = 3.26944, nut+ = 0, nuEff+ = 454.653, y+ = 0.20434, u+ = 0.000449441, k+ = 0, epsilon+ = 0, omega+ = 0
ExecutionTime = 0.462252 s  ClockTime = 1 s

Time = 955s

DICPCG:  Solving for Ux, Initial residual = 2.0008e-05, Final residual = 3.73708e-09, No Iterations 1
DICPCG:  Solving for Uy, Initial residual = 0, Final residual = 0, No Iterations 0
Uncorrected Ubar = 0.05, pressure gradient = 210.39
Rey = 9.18335e-05, uTau = 3.26919, nut+ = 0, nuEff+ = 454.611, y+ = 0.204324, u+ = 0.000449449, k+ = 0, epsilon+ = 0, omega+ = 0
ExecutionTime = 0.462655 s  ClockTime = 1 s

Time = 956s

DICPCG:  Solving for Ux, Initial residual = 1.97971e-05, Final residual = 3.69711e-09, No Iterations 1
DICPCG:  Solving for Uy, Initial residual = 0, Final residual = 0, No Iterations 0
Uncorrected Ubar = 0.05, pressure gradient = 210.403
Rey = 9.18283e-05, uTau = 3.26895, nut+ = 0, nuEff+ = 454.569, y+ = 0.204309, u+ = 0.000449457, k+ = 0, epsilon+ = 0, omega+ = 0
ExecutionTime = 0.463059 s  ClockTime = 1 s

Time = 957s

DICPCG:  Solving for Ux, Initial residual = 1.95883e-05, Final residual = 3.65755e-09, No Iterations 1
DICPCG:  Solving for Uy, Initial residual = 0, Final residual = 0, No Iterations 0
Uncorrected Ubar = 0.05, pressure gradient = 210.416
Rey = 9.18232e-05, uTau = 3.26871, nut+ = 0, nuEff+ = 454.527, y+ = 0.204294, u+ = 0.000449466, k+ = 0, epsilon+ = 0, omega+ = 0
ExecutionTime = 0.463461 s  ClockTime = 1 s

Time = 958s

DICPCG:  Solving for Ux, Initial residual = 1.93818e-05, Final residual = 3.61842e-09, No Iterations 1
DICPCG:  Solving for Uy, Initial residual = 0, Final residual = 0, No Iterations 0
Uncorrected Ubar = 0.05, pressure gradient = 210.428
Rey = 9.18182e-05, uTau = 3.26847, nut+ = 0, nuEff+ = 454.486, y+ = 0.204279, u+ = 0.000449474, k+ = 0, epsilon+ = 0, omega+ = 0
ExecutionTime = 0.463871 s  ClockTime = 1 s

Time = 959s

DICPCG:  Solving for Ux, Initial residual = 1.91775e-05, Final residual = 3.5797e-09, No Iterations 1
DICPCG:  Solving for Uy, Initial residual = 0, Final residual = 0, No Iterations 0
Uncorrected Ubar = 0.05, pressure gradient = 210.441
Rey = 9.18132e-05, uTau = 3.26824, nut+ = 0, nuEff+ = 454.445, y+ = 0.204265, u+ = 0.000449482, k+ = 0, epsilon+ = 0, omega+ = 0
ExecutionTime = 0.464309 s  ClockTime = 1 s

Time = 960s

DICPCG:  Solving for Ux, Initial residual = 1.89753e-05, Final residual = 3.54138e-09, No Iterations 1
DICPCG:  Solving for Uy, Initial residual = 0, Final residual = 0, No Iterations 0
Uncorrected Ubar = 0.05, pressure gradient = 210.453
Rey = 9.18083e-05, uTau = 3.268, nut+ = 0, nuEff+ = 454.405, y+ = 0.20425, u+ = 0.000449489, k+ = 0, epsilon+ = 0, omega+ = 0
ExecutionTime = 0.464717 s  ClockTime = 1 s

Time = 961s

DICPCG:  Solving for Ux, Initial residual = 1.87753e-05, Final residual = 3.50347e-09, No Iterations 1
DICPCG:  Solving for Uy, Initial residual = 0, Final residual = 0, No Iterations 0
Uncorrected Ubar = 0.05, pressure gradient = 210.466
Rey = 9.18035e-05, uTau = 3.26777, nut+ = 0, nuEff+ = 454.365, y+ = 0.204236, u+ = 0.000449497, k+ = 0, epsilon+ = 0, omega+ = 0
ExecutionTime = 0.465122 s  ClockTime = 1 s

Time = 962s

DICPCG:  Solving for Ux, Initial residual = 1.85774e-05, Final residual = 3.46596e-09, No Iterations 1
DICPCG:  Solving for Uy, Initial residual = 0, Final residual = 0, No Iterations 0
Uncorrected Ubar = 0.05, pressure gradient = 210.478
Rey = 9.17987e-05, uTau = 3.26755, nut+ = 0, nuEff+ = 454.326, y+ = 0.204222, u+ = 0.000449505, k+ = 0, epsilon+ = 0, omega+ = 0
ExecutionTime = 0.465582 s  ClockTime = 1 s

Time = 963s

DICPCG:  Solving for Ux, Initial residual = 1.83816e-05, Final residual = 3.42885e-09, No Iterations 1
DICPCG:  Solving for Uy, Initial residual = 0, Final residual = 0, No Iterations 0
Uncorrected Ubar = 0.05, pressure gradient = 210.49
Rey = 9.17939e-05, uTau = 3.26732, nut+ = 0, nuEff+ = 454.287, y+ = 0.204208, u+ = 0.000449513, k+ = 0, epsilon+ = 0, omega+ = 0
ExecutionTime = 0.465991 s  ClockTime = 1 s

Time = 964s

DICPCG:  Solving for Ux, Initial residual = 1.81879e-05, Final residual = 3.39212e-09, No Iterations 1
DICPCG:  Solving for Uy, Initial residual = 0, Final residual = 0, No Iterations 0
Uncorrected Ubar = 0.05, pressure gradient = 210.502
Rey = 9.17892e-05, uTau = 3.2671, nut+ = 0, nuEff+ = 454.248, y+ = 0.204194, u+ = 0.00044952, k+ = 0, epsilon+ = 0, omega+ = 0
ExecutionTime = 0.466396 s  ClockTime = 1 s

Time = 965s

DICPCG:  Solving for Ux, Initial residual = 1.79963e-05, Final residual = 3.35579e-09, No Iterations 1
DICPCG:  Solving for Uy, Initial residual = 0, Final residual = 0, No Iterations 0
Uncorrected Ubar = 0.05, pressure gradient = 210.514
Rey = 9.17846e-05, uTau = 3.26688, nut+ = 0, nuEff+ = 454.21, y+ = 0.20418, u+ = 0.000449527, k+ = 0, epsilon+ = 0, omega+ = 0
ExecutionTime = 0.466821 s  ClockTime = 1 s

Time = 966s

DICPCG:  Solving for Ux, Initial residual = 1.78067e-05, Final residual = 3.31983e-09, No Iterations 1
DICPCG:  Solving for Uy, Initial residual = 0, Final residual = 0, No Iterations 0
Uncorrected Ubar = 0.05, pressure gradient = 210.525
Rey = 9.178e-05, uTau = 3.26666, nut+ = 0, nuEff+ = 454.173, y+ = 0.204167, u+ = 0.000449535, k+ = 0, epsilon+ = 0, omega+ = 0
ExecutionTime = 0.467235 s  ClockTime = 1 s

Time = 967s

DICPCG:  Solving for Ux, Initial residual = 1.76191e-05, Final residual = 3.28426e-09, No Iterations 1
DICPCG:  Solving for Uy, Initial residual = 0, Final residual = 0, No Iterations 0
Uncorrected Ubar = 0.05, pressure gradient = 210.537
Rey = 9.17754e-05, uTau = 3.26645, nut+ = 0, nuEff+ = 454.136, y+ = 0.204153, u+ = 0.000449542, k+ = 0, epsilon+ = 0, omega+ = 0
ExecutionTime = 0.467637 s  ClockTime = 1 s

Time = 968s

DICPCG:  Solving for Ux, Initial residual = 1.74335e-05, Final residual = 3.24906e-09, No Iterations 1
DICPCG:  Solving for Uy, Initial residual = 0, Final residual = 0, No Iterations 0
Uncorrected Ubar = 0.05, pressure gradient = 210.548
Rey = 9.17709e-05, uTau = 3.26624, nut+ = 0, nuEff+ = 454.099, y+ = 0.20414, u+ = 0.000449549, k+ = 0, epsilon+ = 0, omega+ = 0
ExecutionTime = 0.468048 s  ClockTime = 1 s

Time = 969s

DICPCG:  Solving for Ux, Initial residual = 1.72499e-05, Final residual = 3.21423e-09, No Iterations 1
DICPCG:  Solving for Uy, Initial residual = 0, Final residual = 0, No Iterations 0
Uncorrected Ubar = 0.05, pressure gradient = 210.559
Rey = 9.17665e-05, uTau = 3.26603, nut+ = 0, nuEff+ = 454.063, y+ = 0.204127, u+ = 0.000449556, k+ = 0, epsilon+ = 0, omega+ = 0
ExecutionTime = 0.468453 s  ClockTime = 1 s

Time = 970s

DICPCG:  Solving for Ux, Initial residual = 1.70682e-05, Final residual = 3.17977e-09, No Iterations 1
DICPCG:  Solving for Uy, Initial residual = 0, Final residual = 0, No Iterations 0
Uncorrected Ubar = 0.05, pressure gradient = 210.57
Rey = 9.17621e-05, uTau = 3.26582, nut+ = 0, nuEff+ = 454.027, y+ = 0.204114, u+ = 0.000449563, k+ = 0, epsilon+ = 0, omega+ = 0
ExecutionTime = 0.468856 s  ClockTime = 1 s

Time = 971s

DICPCG:  Solving for Ux, Initial residual = 1.68884e-05, Final residual = 3.14567e-09, No Iterations 1
DICPCG:  Solving for Uy, Initial residual = 0, Final residual = 0, No Iterations 0
Uncorrected Ubar = 0.05, pressure gradient = 210.581
Rey = 9.17578e-05, uTau = 3.26562, nut+ = 0, nuEff+ = 453.991, y+ = 0.204101, u+ = 0.00044957, k+ = 0, epsilon+ = 0, omega+ = 0
ExecutionTime = 0.469259 s  ClockTime = 1 s

Time = 972s

DICPCG:  Solving for Ux, Initial residual = 1.67106e-05, Final residual = 3.11193e-09, No Iterations 1
DICPCG:  Solving for Uy, Initial residual = 0, Final residual = 0, No Iterations 0
Uncorrected Ubar = 0.05, pressure gradient = 210.592
Rey = 9.17535e-05, uTau = 3.26541, nut+ = 0, nuEff+ = 453.956, y+ = 0.204088, u+ = 0.000449577, k+ = 0, epsilon+ = 0, omega+ = 0
ExecutionTime = 0.469661 s  ClockTime = 1 s

Time = 973s

DICPCG:  Solving for Ux, Initial residual = 1.65347e-05, Final residual = 3.07854e-09, No Iterations 1
DICPCG:  Solving for Uy, Initial residual = 0, Final residual = 0, No Iterations 0
Uncorrected Ubar = 0.05, pressure gradient = 210.603
Rey = 9.17493e-05, uTau = 3.26521, nut+ = 0, nuEff+ = 453.922, y+ = 0.204076, u+ = 0.000449584, k+ = 0, epsilon+ = 0, omega+ = 0
ExecutionTime = 0.470064 s  ClockTime = 1 s

Time = 974s

DICPCG:  Solving for Ux, Initial residual = 1.63606e-05, Final residual = 3.04551e-09, No Iterations 1
DICPCG:  Solving for Uy, Initial residual = 0, Final residual = 0, No Iterations 0
Uncorrected Ubar = 0.05, pressure gradient = 210.614
Rey = 9.17451e-05, uTau = 3.26502, nut+ = 0, nuEff+ = 453.887, y+ = 0.204064, u+ = 0.000449591, k+ = 0, epsilon+ = 0, omega+ = 0
ExecutionTime = 0.470466 s  ClockTime = 1 s

Time = 975s

DICPCG:  Solving for Ux, Initial residual = 1.61883e-05, Final residual = 3.01282e-09, No Iterations 1
DICPCG:  Solving for Uy, Initial residual = 0, Final residual = 0, No Iterations 0
Uncorrected Ubar = 0.05, pressure gradient = 210.624
Rey = 9.1741e-05, uTau = 3.26482, nut+ = 0, nuEff+ = 453.853, y+ = 0.204051, u+ = 0.000449597, k+ = 0, epsilon+ = 0, omega+ = 0
ExecutionTime = 0.470869 s  ClockTime = 1 s

Time = 976s

DICPCG:  Solving for Ux, Initial residual = 1.60179e-05, Final residual = 2.98055e-09, No Iterations 1
DICPCG:  Solving for Uy, Initial residual = 0, Final residual = 0, No Iterations 0
Uncorrected Ubar = 0.05, pressure gradient = 210.635
Rey = 9.17369e-05, uTau = 3.26463, nut+ = 0, nuEff+ = 453.82, y+ = 0.204039, u+ = 0.000449604, k+ = 0, epsilon+ = 0, omega+ = 0
ExecutionTime = 0.471404 s  ClockTime = 1 s

Time = 977s

DICPCG:  Solving for Ux, Initial residual = 1.58493e-05, Final residual = 2.94864e-09, No Iterations 1
DICPCG:  Solving for Uy, Initial residual = 0, Final residual = 0, No Iterations 0
Uncorrected Ubar = 0.05, pressure gradient = 210.645
Rey = 9.17328e-05, uTau = 3.26444, nut+ = 0, nuEff+ = 453.787, y+ = 0.204027, u+ = 0.000449611, k+ = 0, epsilon+ = 0, omega+ = 0
ExecutionTime = 0.472614 s  ClockTime = 1 s

Time = 978s

DICPCG:  Solving for Ux, Initial residual = 1.56825e-05, Final residual = 2.91706e-09, No Iterations 1
DICPCG:  Solving for Uy, Initial residual = 0, Final residual = 0, No Iterations 0
Uncorrected Ubar = 0.05, pressure gradient = 210.655
Rey = 9.17288e-05, uTau = 3.26425, nut+ = 0, nuEff+ = 453.754, y+ = 0.204016, u+ = 0.000449617, k+ = 0, epsilon+ = 0, omega+ = 0
ExecutionTime = 0.473096 s  ClockTime = 1 s

Time = 979s

DICPCG:  Solving for Ux, Initial residual = 1.55175e-05, Final residual = 2.88583e-09, No Iterations 1
DICPCG:  Solving for Uy, Initial residual = 0, Final residual = 0, No Iterations 0
Uncorrected Ubar = 0.05, pressure gradient = 210.665
Rey = 9.17249e-05, uTau = 3.26406, nut+ = 0, nuEff+ = 453.722, y+ = 0.204004, u+ = 0.000449623, k+ = 0, epsilon+ = 0, omega+ = 0
ExecutionTime = 0.473505 s  ClockTime = 1 s

Time = 980s

DICPCG:  Solving for Ux, Initial residual = 1.53542e-05, Final residual = 2.85499e-09, No Iterations 1
DICPCG:  Solving for Uy, Initial residual = 0, Final residual = 0, No Iterations 0
Uncorrected Ubar = 0.05, pressure gradient = 210.675
Rey = 9.1721e-05, uTau = 3.26388, nut+ = 0, nuEff+ = 453.69, y+ = 0.203992, u+ = 0.00044963, k+ = 0, epsilon+ = 0, omega+ = 0
ExecutionTime = 0.47391 s  ClockTime = 1 s

Time = 981s

DICPCG:  Solving for Ux, Initial residual = 1.51927e-05, Final residual = 2.82447e-09, No Iterations 1
DICPCG:  Solving for Uy, Initial residual = 0, Final residual = 0, No Iterations 0
Uncorrected Ubar = 0.05, pressure gradient = 210.685
Rey = 9.17171e-05, uTau = 3.26369, nut+ = 0, nuEff+ = 453.658, y+ = 0.203981, u+ = 0.000449636, k+ = 0, epsilon+ = 0, omega+ = 0
ExecutionTime = 0.47438 s  ClockTime = 1 s

Time = 982s

DICPCG:  Solving for Ux, Initial residual = 1.50328e-05, Final residual = 2.79428e-09, No Iterations 1
DICPCG:  Solving for Uy, Initial residual = 0, Final residual = 0, No Iterations 0
Uncorrected Ubar = 0.05, pressure gradient = 210.695
Rey = 9.17133e-05, uTau = 3.26351, nut+ = 0, nuEff+ = 453.627, y+ = 0.20397, u+ = 0.000449642, k+ = 0, epsilon+ = 0, omega+ = 0
ExecutionTime = 0.47479 s  ClockTime = 1 s

Time = 983s

DICPCG:  Solving for Ux, Initial residual = 1.4875e-05, Final residual = 2.7644e-09, No Iterations 1
DICPCG:  Solving for Uy, Initial residual = 0, Final residual = 0, No Iterations 0
Uncorrected Ubar = 0.05, pressure gradient = 210.705
Rey = 9.17095e-05, uTau = 3.26334, nut+ = 0, nuEff+ = 453.596, y+ = 0.203958, u+ = 0.000449648, k+ = 0, epsilon+ = 0, omega+ = 0
ExecutionTime = 0.475218 s  ClockTime = 1 s

Time = 984s

DICPCG:  Solving for Ux, Initial residual = 1.47193e-05, Final residual = 2.73484e-09, No Iterations 1
DICPCG:  Solving for Uy, Initial residual = 0, Final residual = 0, No Iterations 0
Uncorrected Ubar = 0.05, pressure gradient = 210.714
Rey = 9.17058e-05, uTau = 3.26316, nut+ = 0, nuEff+ = 453.565, y+ = 0.203947, u+ = 0.000449654, k+ = 0, epsilon+ = 0, omega+ = 0
ExecutionTime = 0.475631 s  ClockTime = 1 s

Time = 985s

DICPCG:  Solving for Ux, Initial residual = 1.45653e-05, Final residual = 2.70559e-09, No Iterations 1
DICPCG:  Solving for Uy, Initial residual = 0, Final residual = 0, No Iterations 0
Uncorrected Ubar = 0.05, pressure gradient = 210.724
Rey = 9.17021e-05, uTau = 3.26299, nut+ = 0, nuEff+ = 453.535, y+ = 0.203937, u+ = 0.00044966, k+ = 0, epsilon+ = 0, omega+ = 0
ExecutionTime = 0.476037 s  ClockTime = 1 s

Time = 986s

DICPCG:  Solving for Ux, Initial residual = 1.44129e-05, Final residual = 2.67664e-09, No Iterations 1
DICPCG:  Solving for Uy, Initial residual = 0, Final residual = 0, No Iterations 0
Uncorrected Ubar = 0.05, pressure gradient = 210.733
Rey = 9.16985e-05, uTau = 3.26281, nut+ = 0, nuEff+ = 453.505, y+ = 0.203926, u+ = 0.000449666, k+ = 0, epsilon+ = 0, omega+ = 0
ExecutionTime = 0.476448 s  ClockTime = 1 s

Time = 987s

DICPCG:  Solving for Ux, Initial residual = 1.42622e-05, Final residual = 2.648e-09, No Iterations 1
DICPCG:  Solving for Uy, Initial residual = 0, Final residual = 0, No Iterations 0
Uncorrected Ubar = 0.05, pressure gradient = 210.742
Rey = 9.16949e-05, uTau = 3.26264, nut+ = 0, nuEff+ = 453.476, y+ = 0.203915, u+ = 0.000449672, k+ = 0, epsilon+ = 0, omega+ = 0
ExecutionTime = 0.476862 s  ClockTime = 1 s

Time = 988s

DICPCG:  Solving for Ux, Initial residual = 1.4113e-05, Final residual = 2.61966e-09, No Iterations 1
DICPCG:  Solving for Uy, Initial residual = 0, Final residual = 0, No Iterations 0
Uncorrected Ubar = 0.05, pressure gradient = 210.751
Rey = 9.16913e-05, uTau = 3.26247, nut+ = 0, nuEff+ = 453.447, y+ = 0.203905, u+ = 0.000449677, k+ = 0, epsilon+ = 0, omega+ = 0
ExecutionTime = 0.477267 s  ClockTime = 1 s

Time = 989s

DICPCG:  Solving for Ux, Initial residual = 1.39654e-05, Final residual = 2.59161e-09, No Iterations 1
DICPCG:  Solving for Uy, Initial residual = 0, Final residual = 0, No Iterations 0
Uncorrected Ubar = 0.05, pressure gradient = 210.76
Rey = 9.16878e-05, uTau = 3.26231, nut+ = 0, nuEff+ = 453.418, y+ = 0.203894, u+ = 0.000449683, k+ = 0, epsilon+ = 0, omega+ = 0
ExecutionTime = 0.477672 s  ClockTime = 1 s

Time = 990s

DICPCG:  Solving for Ux, Initial residual = 1.38194e-05, Final residual = 2.56386e-09, No Iterations 1
DICPCG:  Solving for Uy, Initial residual = 0, Final residual = 0, No Iterations 0
Uncorrected Ubar = 0.05, pressure gradient = 210.769
Rey = 9.16843e-05, uTau = 3.26214, nut+ = 0, nuEff+ = 453.389, y+ = 0.203884, u+ = 0.000449689, k+ = 0, epsilon+ = 0, omega+ = 0
ExecutionTime = 0.478076 s  ClockTime = 1 s

Time = 991s

DICPCG:  Solving for Ux, Initial residual = 1.36749e-05, Final residual = 2.5364e-09, No Iterations 1
DICPCG:  Solving for Uy, Initial residual = 0, Final residual = 0, No Iterations 0
Uncorrected Ubar = 0.05, pressure gradient = 210.778
Rey = 9.16809e-05, uTau = 3.26198, nut+ = 0, nuEff+ = 453.361, y+ = 0.203874, u+ = 0.000449694, k+ = 0, epsilon+ = 0, omega+ = 0
ExecutionTime = 0.478478 s  ClockTime = 1 s

Time = 992s

DICPCG:  Solving for Ux, Initial residual = 1.35319e-05, Final residual = 2.50923e-09, No Iterations 1
DICPCG:  Solving for Uy, Initial residual = 0, Final residual = 0, No Iterations 0
Uncorrected Ubar = 0.05, pressure gradient = 210.787
Rey = 9.16775e-05, uTau = 3.26182, nut+ = 0, nuEff+ = 453.333, y+ = 0.203864, u+ = 0.0004497, k+ = 0, epsilon+ = 0, omega+ = 0
ExecutionTime = 0.478878 s  ClockTime = 1 s

Time = 993s

DICPCG:  Solving for Ux, Initial residual = 1.33905e-05, Final residual = 2.48234e-09, No Iterations 1
DICPCG:  Solving for Uy, Initial residual = 0, Final residual = 0, No Iterations 0
Uncorrected Ubar = 0.05, pressure gradient = 210.795
Rey = 9.16741e-05, uTau = 3.26166, nut+ = 0, nuEff+ = 453.306, y+ = 0.203854, u+ = 0.000449705, k+ = 0, epsilon+ = 0, omega+ = 0
ExecutionTime = 0.479279 s  ClockTime = 1 s

Time = 994s

DICPCG:  Solving for Ux, Initial residual = 1.32506e-05, Final residual = 2.45573e-09, No Iterations 1
DICPCG:  Solving for Uy, Initial residual = 0, Final residual = 0, No Iterations 0
Uncorrected Ubar = 0.05, pressure gradient = 210.804
Rey = 9.16708e-05, uTau = 3.26151, nut+ = 0, nuEff+ = 453.279, y+ = 0.203844, u+ = 0.00044971, k+ = 0, epsilon+ = 0, omega+ = 0
ExecutionTime = 0.47968 s  ClockTime = 1 s

Time = 995s

DICPCG:  Solving for Ux, Initial residual = 1.31121e-05, Final residual = 2.4294e-09, No Iterations 1
DICPCG:  Solving for Uy, Initial residual = 0, Final residual = 0, No Iterations 0
Uncorrected Ubar = 0.05, pressure gradient = 210.812
Rey = 9.16675e-05, uTau = 3.26135, nut+ = 0, nuEff+ = 453.252, y+ = 0.203834, u+ = 0.000449716, k+ = 0, epsilon+ = 0, omega+ = 0
ExecutionTime = 0.480132 s  ClockTime = 1 s

Time = 996s

DICPCG:  Solving for Ux, Initial residual = 1.29751e-05, Final residual = 2.40335e-09, No Iterations 1
DICPCG:  Solving for Uy, Initial residual = 0, Final residual = 0, No Iterations 0
Uncorrected Ubar = 0.05, pressure gradient = 210.821
Rey = 9.16643e-05, uTau = 3.2612, nut+ = 0, nuEff+ = 453.225, y+ = 0.203825, u+ = 0.000449721, k+ = 0, epsilon+ = 0, omega+ = 0
ExecutionTime = 0.480567 s  ClockTime = 1 s

Time = 997s

DICPCG:  Solving for Ux, Initial residual = 1.28396e-05, Final residual = 2.37757e-09, No Iterations 1
DICPCG:  Solving for Uy, Initial residual = 0, Final residual = 0, No Iterations 0
Uncorrected Ubar = 0.05, pressure gradient = 210.829
Rey = 9.16611e-05, uTau = 3.26105, nut+ = 0, nuEff+ = 453.199, y+ = 0.203815, u+ = 0.000449726, k+ = 0, epsilon+ = 0, omega+ = 0
ExecutionTime = 0.480986 s  ClockTime = 1 s

Time = 998s

DICPCG:  Solving for Ux, Initial residual = 1.27055e-05, Final residual = 2.35206e-09, No Iterations 1
DICPCG:  Solving for Uy, Initial residual = 0, Final residual = 0, No Iterations 0
Uncorrected Ubar = 0.05, pressure gradient = 210.837
Rey = 9.16579e-05, uTau = 3.2609, nut+ = 0, nuEff+ = 453.173, y+ = 0.203806, u+ = 0.000449731, k+ = 0, epsilon+ = 0, omega+ = 0
ExecutionTime = 0.481392 s  ClockTime = 1 s

Time = 999s

DICPCG:  Solving for Ux, Initial residual = 1.25728e-05, Final residual = 2.32682e-09, No Iterations 1
DICPCG:  Solving for Uy, Initial residual = 0, Final residual = 0, No Iterations 0
Uncorrected Ubar = 0.05, pressure gradient = 210.845
Rey = 9.16548e-05, uTau = 3.26075, nut+ = 0, nuEff+ = 453.147, y+ = 0.203797, u+ = 0.000449736, k+ = 0, epsilon+ = 0, omega+ = 0
ExecutionTime = 0.481794 s  ClockTime = 1 s

Time = 1000s

DICPCG:  Solving for Ux, Initial residual = 1.24416e-05, Final residual = 2.30184e-09, No Iterations 1
DICPCG:  Solving for Uy, Initial residual = 0, Final residual = 0, No Iterations 0
Uncorrected Ubar = 0.05, pressure gradient = 210.853
Rey = 9.16517e-05, uTau = 3.2606, nut+ = 0, nuEff+ = 453.122, y+ = 0.203788, u+ = 0.000449741, k+ = 0, epsilon+ = 0, omega+ = 0
ExecutionTime = 0.484139 s  ClockTime = 1 s

End

