chemkinToFoam: symbol lookup error: /lib/libsolidSpecie.so: undefined symbol: _ZN4Foam8fileName20allowSpaceInFileNameE
