/*---------------------------------------------------------------------------*\
  =========                 |
  \\      /  F ield         | OpenFOAM: The Open Source CFD Toolbox
   \\    /   O peration     | Website:  https://openfoam.org
    \\  /    A nd           | Version:  12
     \\/     M anipulation  |
\*---------------------------------------------------------------------------*/
Build  : 12-cc05c1b03c38
Exec   : blockMesh
Date   : Oct 15 2024
Time   : 06:03:38
Host   : "DESKTOP-KBPC6IC"
PID    : 245747
I/O    : uncollated
Case   : /home/as/openfoam/OpenFOAM-12/test/multiphaseEuler/populationBalance/isothermalGrowth
nProcs : 1
sigFpe : Enabling floating point exception trapping (FOAM_SIGFPE).
fileModificationChecking : Monitoring run-time modified files using timeStampMaster (fileModificationSkew 10)
allowSystemOperations : Allowing user-supplied system call operations

// * * * * * * * * * * * * * * * * * * * * * * * * * * * * * * * * * * * * * //
Create time

Reading "blockMeshDict"

Creating block mesh from
    "system/blockMeshDict"
No non-linear block edges defined
No non-planar block faces defined
Creating topology blocks
Creating topology patches

Creating block mesh topology

Check topology

	Basic statistics
		Number of internal faces : 0
		Number of boundary faces : 6
		Number of defined boundary faces : 6
		Number of undefined boundary faces : 0
	Checking patch -> block consistency

Creating block offsets
Creating merge list .

Creating polyMesh from blockMesh
Creating patches
Creating cells
Creating points with scale 1
    Block 0 cell size :
        i : 0.1
        j : 0.01 .. 0.01
        k : 0.1

No patch pairs to merge

Writing polyMesh
----------------
Mesh Information
----------------
  boundingBox: (0 0 0) (0.1 1.1 0.1)
  nPoints: 444
  nCells: 110
  nFaces: 551
  nInternalFaces: 109
----------------
Patches
----------------
  patch 0 (start: 109 size: 1) name: inlet
  patch 1 (start: 110 size: 1) name: outlet
  patch 2 (start: 111 size: 440) name: defaultFaces

End

