/*---------------------------------------------------------------------------*\
  =========                 |
  \\      /  F ield         | OpenFOAM: The Open Source CFD Toolbox
   \\    /   O peration     | Website:  https://openfoam.org
    \\  /    A nd           | Version:  12
     \\/     M anipulation  |
\*---------------------------------------------------------------------------*/
Build  : 12-cc05c1b03c38
Exec   : foamRun
Date   : Oct 11 2024
Time   : 00:18:19
Host   : "DESKTOP-KBPC6IC"
PID    : 10387
I/O    : uncollated
Case   : /home/as/openfoam/OpenFOAM-12/tutorials/incompressibleFluid/pitzDaily
nProcs : 1
sigFpe : Enabling floating point exception trapping (FOAM_SIGFPE).
fileModificationChecking : Monitoring run-time modified files using timeStampMaster (fileModificationSkew 10)
allowSystemOperations : Allowing user-supplied system call operations

// * * * * * * * * * * * * * * * * * * * * * * * * * * * * * * * * * * * * * //
Create time

Create mesh for time = 0

Selecting solver incompressibleFluid
Selecting viscosity model constant
Selecting turbulence model type RAS
Selecting RAS turbulence model kEpsilon
RAS
{
    model           kEpsilon;
    turbulence      on;
    printCoeffs     on;
    Cmu             0.09;
    C1              1.44;
    C2              1.92;
    C3              0;
    sigmak          1;
    sigmaEps        1.3;
}

No MRF models present

Courant Number mean: 0.000874894 max: 0.315889

PIMPLE: No convergence criteria found


PIMPLE: Operating solver in transient mode with 1 outer corrector
PIMPLE: Operating solver in PISO mode


surfaceFieldValue patchAverage(patch=inlet,fields=(pU)):
    total faces  = 30
    total area   = 2.54e-05



Starting time loop

Courant Number mean: 0.000874894 max: 0.315889
deltaT = 0.000119048
Time = 0.000119048s

smoothSolver:  Solving for Ux, Initial residual = 1, Final residual = 2.88483e-06, No Iterations 6
smoothSolver:  Solving for Uy, Initial residual = 1, Final residual = 3.02628e-06, No Iterations 7
GAMG:  Solving for p, Initial residual = 1, Final residual = 0.00882886, No Iterations 13
time step continuity errors : sum local = 1.83912e-05, global = 4.3885e-06
GAMG:  Solving for p, Initial residual = 0.0227006, Final residual = 8.19322e-08, No Iterations 24
time step continuity errors : sum local = 1.74703e-08, global = 1.70963e-09, cumulative = 1.70963e-09
smoothSolver:  Solving for epsilon, Initial residual = 0.0812087, Final residual = 4.24912e-06, No Iterations 8
smoothSolver:  Solving for k, Initial residual = 1, Final residual = 8.92052e-06, No Iterations 12
ExecutionTime = 0.88717 s  ClockTime = 6 s

Courant Number mean: 0.507728 max: 9.18689
deltaT = 6.45814e-05
Time = 0.000183629s

smoothSolver:  Solving for Ux, Initial residual = 0.732815, Final residual = 7.7441e-06, No Iterations 18
smoothSolver:  Solving for Uy, Initial residual = 0.157903, Final residual = 8.4003e-06, No Iterations 12
GAMG:  Solving for p, Initial residual = 0.0365333, Final residual = 0.000314242, No Iterations 11
time step continuity errors : sum local = 1.63232e-05, global = -3.75704e-06
GAMG:  Solving for p, Initial residual = 0.0821489, Final residual = 5.37763e-08, No Iterations 24
time step continuity errors : sum local = 1.13723e-09, global = -6.26038e-11, cumulative = 1.64703e-09
smoothSolver:  Solving for epsilon, Initial residual = 0.0992538, Final residual = 8.50891e-06, No Iterations 13
smoothSolver:  Solving for k, Initial residual = 0.296998, Final residual = 8.40581e-06, No Iterations 31
ExecutionTime = 1.04115 s  ClockTime = 7 s

Courant Number mean: 0.274743 max: 5.24273
deltaT = 6.13523e-05
Time = 0.000244981s

smoothSolver:  Solving for Ux, Initial residual = 0.0197053, Final residual = 7.56707e-06, No Iterations 18
smoothSolver:  Solving for Uy, Initial residual = 0.0781894, Final residual = 8.38997e-06, No Iterations 10
GAMG:  Solving for p, Initial residual = 0.827955, Final residual = 0.00492828, No Iterations 5
time step continuity errors : sum local = 9.09275e-06, global = -3.47536e-07
GAMG:  Solving for p, Initial residual = 0.505596, Final residual = 6.15503e-08, No Iterations 23
time step continuity errors : sum local = 7.44609e-11, global = -1.09845e-11, cumulative = 1.63604e-09
smoothSolver:  Solving for epsilon, Initial residual = 0.0714195, Final residual = 9.8946e-06, No Iterations 19
smoothSolver:  Solving for k, Initial residual = 0.0770434, Final residual = 8.65085e-06, No Iterations 15
ExecutionTime = 1.17857 s  ClockTime = 7 s

Courant Number mean: 0.261063 max: 3.19109
deltaT = 7.3346e-05
Time = 0.000318327s

smoothSolver:  Solving for Ux, Initial residual = 0.0170669, Final residual = 6.16073e-06, No Iterations 9
smoothSolver:  Solving for Uy, Initial residual = 0.0229051, Final residual = 6.627e-06, No Iterations 9
GAMG:  Solving for p, Initial residual = 0.536767, Final residual = 0.00301279, No Iterations 5
time step continuity errors : sum local = 4.38299e-06, global = 2.6131e-07
GAMG:  Solving for p, Initial residual = 0.408293, Final residual = 7.4808e-08, No Iterations 23
time step continuity errors : sum local = 6.74771e-11, global = 9.90353e-12, cumulative = 1.64594e-09
smoothSolver:  Solving for epsilon, Initial residual = 0.0239455, Final residual = 9.44851e-06, No Iterations 7
smoothSolver:  Solving for k, Initial residual = 0.0401812, Final residual = 5.75412e-06, No Iterations 11
ExecutionTime = 1.2998 s  ClockTime = 7 s

Courant Number mean: 0.312079 max: 3.60337
deltaT = 8.80152e-05
Time = 0.000406343s

smoothSolver:  Solving for Ux, Initial residual = 0.0076941, Final residual = 6.64144e-06, No Iterations 6
smoothSolver:  Solving for Uy, Initial residual = 0.00638097, Final residual = 9.49785e-06, No Iterations 5
GAMG:  Solving for p, Initial residual = 0.389282, Final residual = 0.00268598, No Iterations 4
time step continuity errors : sum local = 2.13084e-06, global = -1.98825e-07
GAMG:  Solving for p, Initial residual = 0.197878, Final residual = 8.37423e-08, No Iterations 22
time step continuity errors : sum local = 5.90391e-11, global = 1.54577e-11, cumulative = 1.6614e-09
smoothSolver:  Solving for epsilon, Initial residual = 0.0316468, Final residual = 7.38369e-06, No Iterations 8
smoothSolver:  Solving for k, Initial residual = 0.0380131, Final residual = 7.21555e-06, No Iterations 10
ExecutionTime = 1.40539 s  ClockTime = 7 s

Courant Number mean: 0.374529 max: 4.26838
deltaT = 0.00010206
Time = 0.000508403s

smoothSolver:  Solving for Ux, Initial residual = 0.00792845, Final residual = 9.19686e-06, No Iterations 6
smoothSolver:  Solving for Uy, Initial residual = 0.0074123, Final residual = 8.38979e-06, No Iterations 7
GAMG:  Solving for p, Initial residual = 0.206765, Final residual = 0.00125155, No Iterations 4
time step continuity errors : sum local = 9.93986e-07, global = 8.10114e-08
GAMG:  Solving for p, Initial residual = 0.0726045, Final residual = 8.11691e-08, No Iterations 21
time step continuity errors : sum local = 5.87845e-11, global = 9.67983e-12, cumulative = 1.67108e-09
smoothSolver:  Solving for epsilon, Initial residual = 0.0306468, Final residual = 7.44519e-06, No Iterations 8
smoothSolver:  Solving for k, Initial residual = 0.0369126, Final residual = 5.00991e-06, No Iterations 10
ExecutionTime = 1.52377 s  ClockTime = 7 s

Courant Number mean: 0.434401 max: 4.86528
deltaT = 0.000104303
Time = 0.000612706s

smoothSolver:  Solving for Ux, Initial residual = 0.00686903, Final residual = 5.01814e-06, No Iterations 6
smoothSolver:  Solving for Uy, Initial residual = 0.00702818, Final residual = 9.11982e-06, No Iterations 6
GAMG:  Solving for p, Initial residual = 0.15083, Final residual = 0.000776869, No Iterations 4
time step continuity errors : sum local = 5.47985e-07, global = -2.00008e-08
GAMG:  Solving for p, Initial residual = 0.0610611, Final residual = 7.14606e-08, No Iterations 19
time step continuity errors : sum local = 4.88192e-11, global = 1.15885e-11, cumulative = 1.68267e-09
smoothSolver:  Solving for epsilon, Initial residual = 0.0259354, Final residual = 3.76031e-06, No Iterations 8
smoothSolver:  Solving for k, Initial residual = 0.0323506, Final residual = 5.50154e-06, No Iterations 9
ExecutionTime = 1.65128 s  ClockTime = 7 s

Courant Number mean: 0.444088 max: 4.91393
deltaT = 0.000105475
Time = 0.000718181s

smoothSolver:  Solving for Ux, Initial residual = 0.00683596, Final residual = 4.97436e-06, No Iterations 6
smoothSolver:  Solving for Uy, Initial residual = 0.00721706, Final residual = 8.44802e-06, No Iterations 6
GAMG:  Solving for p, Initial residual = 0.148161, Final residual = 0.00102737, No Iterations 4
time step continuity errors : sum local = 7.09282e-07, global = 2.26271e-08
GAMG:  Solving for p, Initial residual = 0.0652655, Final residual = 9.58375e-08, No Iterations 17
time step continuity errors : sum local = 6.44812e-11, global = 1.38628e-11, cumulative = 1.69653e-09
smoothSolver:  Solving for epsilon, Initial residual = 0.0215891, Final residual = 6.45533e-06, No Iterations 7
smoothSolver:  Solving for k, Initial residual = 0.0287753, Final residual = 7.66737e-06, No Iterations 8
ExecutionTime = 1.74605 s  ClockTime = 7 s

Courant Number mean: 0.449276 max: 4.89325
deltaT = 0.000106688
Time = 0.000824869s

smoothSolver:  Solving for Ux, Initial residual = 0.00675854, Final residual = 4.8784e-06, No Iterations 6
smoothSolver:  Solving for Uy, Initial residual = 0.00742632, Final residual = 7.5898e-06, No Iterations 6
GAMG:  Solving for p, Initial residual = 0.13266, Final residual = 0.000775542, No Iterations 4
time step continuity errors : sum local = 5.25841e-07, global = 1.9699e-09
GAMG:  Solving for p, Initial residual = 0.0629003, Final residual = 7.09701e-08, No Iterations 15
time step continuity errors : sum local = 4.75776e-11, global = -7.99612e-12, cumulative = 1.68854e-09
smoothSolver:  Solving for epsilon, Initial residual = 0.0187185, Final residual = 3.74552e-06, No Iterations 7
smoothSolver:  Solving for k, Initial residual = 0.0261649, Final residual = 4.4116e-06, No Iterations 8
ExecutionTime = 1.84098 s  ClockTime = 7 s

Courant Number mean: 0.454674 max: 4.83534
deltaT = 0.000109228
Time = 0.000934097s

smoothSolver:  Solving for Ux, Initial residual = 0.00682165, Final residual = 5.35584e-06, No Iterations 6
smoothSolver:  Solving for Uy, Initial residual = 0.00767759, Final residual = 7.98491e-06, No Iterations 6
GAMG:  Solving for p, Initial residual = 0.127323, Final residual = 0.000920843, No Iterations 4
time step continuity errors : sum local = 6.41468e-07, global = 8.06632e-09
GAMG:  Solving for p, Initial residual = 0.0639636, Final residual = 8.97059e-08, No Iterations 17
time step continuity errors : sum local = 6.19452e-11, global = 1.08212e-11, cumulative = 1.69936e-09
smoothSolver:  Solving for epsilon, Initial residual = 0.0173854, Final residual = 8.24251e-06, No Iterations 6
smoothSolver:  Solving for k, Initial residual = 0.0245626, Final residual = 9.0847e-06, No Iterations 7
ExecutionTime = 1.93716 s  ClockTime = 7 s

Courant Number mean: 0.465791 max: 4.84936
deltaT = 0.000111925
Time = 0.00104602s

smoothSolver:  Solving for Ux, Initial residual = 0.00688261, Final residual = 6.05135e-06, No Iterations 6
smoothSolver:  Solving for Uy, Initial residual = 0.00798644, Final residual = 8.81288e-06, No Iterations 6
GAMG:  Solving for p, Initial residual = 0.125384, Final residual = 0.000915394, No Iterations 4
time step continuity errors : sum local = 6.55637e-07, global = 3.60937e-09
GAMG:  Solving for p, Initial residual = 0.0656142, Final residual = 9.36234e-08, No Iterations 15
time step continuity errors : sum local = 6.67999e-11, global = -1.36791e-11, cumulative = 1.68568e-09
smoothSolver:  Solving for epsilon, Initial residual = 0.0169614, Final residual = 5.57662e-06, No Iterations 6
smoothSolver:  Solving for k, Initial residual = 0.02306, Final residual = 7.11455e-06, No Iterations 7
ExecutionTime = 2.03174 s  ClockTime = 8 s

Courant Number mean: 0.477623 max: 4.82954
deltaT = 0.000114795
Time = 0.00116082s

smoothSolver:  Solving for Ux, Initial residual = 0.00697353, Final residual = 7.01444e-06, No Iterations 6
smoothSolver:  Solving for Uy, Initial residual = 0.00829916, Final residual = 4.16836e-06, No Iterations 7
GAMG:  Solving for p, Initial residual = 0.123425, Final residual = 0.00092993, No Iterations 4
time step continuity errors : sum local = 6.89843e-07, global = 4.06006e-09
GAMG:  Solving for p, Initial residual = 0.0674664, Final residual = 8.26688e-08, No Iterations 16
time step continuity errors : sum local = 6.13934e-11, global = 1.06135e-11, cumulative = 1.69629e-09
smoothSolver:  Solving for epsilon, Initial residual = 0.0164783, Final residual = 4.01182e-06, No Iterations 6
smoothSolver:  Solving for k, Initial residual = 0.0218645, Final residual = 6.24168e-06, No Iterations 7
ExecutionTime = 2.13095 s  ClockTime = 8 s

Courant Number mean: 0.49026 max: 4.82292
deltaT = 0.000117856
Time = 0.00127867s

smoothSolver:  Solving for Ux, Initial residual = 0.00707546, Final residual = 8.22319e-06, No Iterations 6
smoothSolver:  Solving for Uy, Initial residual = 0.00862919, Final residual = 4.96754e-06, No Iterations 7
GAMG:  Solving for p, Initial residual = 0.12425, Final residual = 0.000901007, No Iterations 4
time step continuity errors : sum local = 6.98952e-07, global = 2.59666e-09
GAMG:  Solving for p, Initial residual = 0.0700189, Final residual = 6.71881e-08, No Iterations 16
time step continuity errors : sum local = 5.21973e-11, global = 7.53853e-12, cumulative = 1.70383e-09
smoothSolver:  Solving for epsilon, Initial residual = 0.0154474, Final residual = 9.96277e-06, No Iterations 5
smoothSolver:  Solving for k, Initial residual = 0.0207624, Final residual = 6.07367e-06, No Iterations 7
ExecutionTime = 2.22177 s  ClockTime = 8 s

Courant Number mean: 0.50375 max: 4.82767
deltaT = 0.00012113
Time = 0.0013998s

smoothSolver:  Solving for Ux, Initial residual = 0.00716501, Final residual = 9.71969e-06, No Iterations 6
smoothSolver:  Solving for Uy, Initial residual = 0.00893907, Final residual = 5.98944e-06, No Iterations 7
GAMG:  Solving for p, Initial residual = 0.126539, Final residual = 0.000884918, No Iterations 4
time step continuity errors : sum local = 7.1888e-07, global = 2.94252e-09
GAMG:  Solving for p, Initial residual = 0.0718837, Final residual = 7.20626e-08, No Iterations 16
time step continuity errors : sum local = 5.8847e-11, global = 9.88109e-12, cumulative = 1.71371e-09
smoothSolver:  Solving for epsilon, Initial residual = 0.0150489, Final residual = 8.84899e-06, No Iterations 5
smoothSolver:  Solving for k, Initial residual = 0.0197727, Final residual = 6.43138e-06, No Iterations 7
ExecutionTime = 2.31097 s  ClockTime = 8 s

Courant Number mean: 0.518227 max: 4.82409
deltaT = 0.000124641
Time = 0.00152444s

smoothSolver:  Solving for Ux, Initial residual = 0.00727044, Final residual = 5.13756e-06, No Iterations 7
smoothSolver:  Solving for Uy, Initial residual = 0.00925051, Final residual = 7.24621e-06, No Iterations 7
GAMG:  Solving for p, Initial residual = 0.124922, Final residual = 0.000852602, No Iterations 4
time step continuity errors : sum local = 7.28668e-07, global = 2.44472e-09
GAMG:  Solving for p, Initial residual = 0.073144, Final residual = 8.04142e-08, No Iterations 15
time step continuity errors : sum local = 6.89072e-11, global = -1.37003e-11, cumulative = 1.70001e-09
smoothSolver:  Solving for epsilon, Initial residual = 0.0143037, Final residual = 8.5917e-06, No Iterations 5
smoothSolver:  Solving for k, Initial residual = 0.0189983, Final residual = 7.22676e-06, No Iterations 7
ExecutionTime = 2.3941 s  ClockTime = 8 s

Courant Number mean: 0.53376 max: 4.84287
deltaT = 0.000128418
Time = 0.00165286s

smoothSolver:  Solving for Ux, Initial residual = 0.0073841, Final residual = 6.27246e-06, No Iterations 7
smoothSolver:  Solving for Uy, Initial residual = 0.00955891, Final residual = 8.71989e-06, No Iterations 7
GAMG:  Solving for p, Initial residual = 0.124658, Final residual = 0.000817659, No Iterations 4
time step continuity errors : sum local = 7.34495e-07, global = 2.45149e-09
GAMG:  Solving for p, Initial residual = 0.0736019, Final residual = 6.67406e-08, No Iterations 16
time step continuity errors : sum local = 6.01155e-11, global = -1.07246e-11, cumulative = 1.68929e-09
smoothSolver:  Solving for epsilon, Initial residual = 0.013708, Final residual = 8.93713e-06, No Iterations 5
smoothSolver:  Solving for k, Initial residual = 0.018388, Final residual = 8.43316e-06, No Iterations 7
ExecutionTime = 2.48519 s  ClockTime = 8 s

Courant Number mean: 0.550519 max: 4.88067
deltaT = 0.000130424
Time = 0.00178328s

smoothSolver:  Solving for Ux, Initial residual = 0.00738795, Final residual = 7.08365e-06, No Iterations 7
smoothSolver:  Solving for Uy, Initial residual = 0.00972347, Final residual = 9.62698e-06, No Iterations 7
GAMG:  Solving for p, Initial residual = 0.124693, Final residual = 0.000803639, No Iterations 4
time step continuity errors : sum local = 7.3933e-07, global = 1.86727e-09
GAMG:  Solving for p, Initial residual = 0.073798, Final residual = 7.01053e-08, No Iterations 16
time step continuity errors : sum local = 6.43704e-11, global = -1.59303e-11, cumulative = 1.67336e-09
smoothSolver:  Solving for epsilon, Initial residual = 0.0128529, Final residual = 9.13096e-06, No Iterations 5
smoothSolver:  Solving for k, Initial residual = 0.0175419, Final residual = 9.25331e-06, No Iterations 7
ExecutionTime = 2.57208 s  ClockTime = 8 s

Courant Number mean: 0.559741 max: 4.84704
deltaT = 0.000132528
Time = 0.00191581s

smoothSolver:  Solving for Ux, Initial residual = 0.00739564, Final residual = 7.92706e-06, No Iterations 7
smoothSolver:  Solving for Uy, Initial residual = 0.00988619, Final residual = 5.02531e-06, No Iterations 8
GAMG:  Solving for p, Initial residual = 0.120593, Final residual = 0.000795765, No Iterations 4
time step continuity errors : sum local = 7.48847e-07, global = 2.34128e-09
GAMG:  Solving for p, Initial residual = 0.0720181, Final residual = 9.65239e-08, No Iterations 16
time step continuity errors : sum local = 9.07106e-11, global = -2.18355e-11, cumulative = 1.65152e-09
smoothSolver:  Solving for epsilon, Initial residual = 0.0121422, Final residual = 9.62315e-06, No Iterations 5
smoothSolver:  Solving for k, Initial residual = 0.0168915, Final residual = 4.70052e-06, No Iterations 8
ExecutionTime = 2.67028 s  ClockTime = 8 s

Courant Number mean: 0.569436 max: 4.82332
deltaT = 0.00013702
Time = 0.00205283s

smoothSolver:  Solving for Ux, Initial residual = 0.00752876, Final residual = 9.48994e-06, No Iterations 7
smoothSolver:  Solving for Uy, Initial residual = 0.0102096, Final residual = 5.99569e-06, No Iterations 8
GAMG:  Solving for p, Initial residual = 0.119611, Final residual = 0.000815841, No Iterations 4
time step continuity errors : sum local = 8.0499e-07, global = -5.07944e-11
GAMG:  Solving for p, Initial residual = 0.0722634, Final residual = 7.33615e-08, No Iterations 16
time step continuity errors : sum local = 7.22579e-11, global = -1.82505e-11, cumulative = 1.63327e-09
smoothSolver:  Solving for epsilon, Initial residual = 0.0117097, Final residual = 3.77417e-06, No Iterations 6
smoothSolver:  Solving for k, Initial residual = 0.0166479, Final residual = 5.71677e-06, No Iterations 8
ExecutionTime = 2.75578 s  ClockTime = 8 s

Courant Number mean: 0.589462 max: 4.90504
deltaT = 0.000139424
Time = 0.00219226s

smoothSolver:  Solving for Ux, Initial residual = 0.00755716, Final residual = 5.21285e-06, No Iterations 8
smoothSolver:  Solving for Uy, Initial residual = 0.0103805, Final residual = 6.46782e-06, No Iterations 8
GAMG:  Solving for p, Initial residual = 0.11762, Final residual = 0.000848224, No Iterations 4
time step continuity errors : sum local = 8.57804e-07, global = 3.53923e-09
GAMG:  Solving for p, Initial residual = 0.0711551, Final residual = 8.7647e-08, No Iterations 16
time step continuity errors : sum local = 8.85259e-11, global = -1.87195e-11, cumulative = 1.61455e-09
smoothSolver:  Solving for epsilon, Initial residual = 0.0113373, Final residual = 4.13403e-06, No Iterations 6
smoothSolver:  Solving for k, Initial residual = 0.016264, Final residual = 6.28324e-06, No Iterations 8
ExecutionTime = 2.84227 s  ClockTime = 8 s

Courant Number mean: 0.600605 max: 4.90699
deltaT = 0.000141959
Time = 0.00233421s

smoothSolver:  Solving for Ux, Initial residual = 0.00757615, Final residual = 5.72742e-06, No Iterations 8
smoothSolver:  Solving for Uy, Initial residual = 0.0105649, Final residual = 6.90246e-06, No Iterations 8
GAMG:  Solving for p, Initial residual = 0.1145, Final residual = 0.000864563, No Iterations 4
time step continuity errors : sum local = 8.95529e-07, global = 2.51788e-09
GAMG:  Solving for p, Initial residual = 0.0703656, Final residual = 6.4532e-08, No Iterations 17
time step continuity errors : sum local = 6.67352e-11, global = 1.20605e-11, cumulative = 1.62661e-09
smoothSolver:  Solving for epsilon, Initial residual = 0.0110818, Final residual = 4.57085e-06, No Iterations 6
smoothSolver:  Solving for k, Initial residual = 0.0159993, Final residual = 6.82301e-06, No Iterations 8
ExecutionTime = 2.93145 s  ClockTime = 8 s

Courant Number mean: 0.612372 max: 4.91592
deltaT = 0.000141959
Time = 0.00247617s

smoothSolver:  Solving for Ux, Initial residual = 0.0074734, Final residual = 5.68504e-06, No Iterations 8
smoothSolver:  Solving for Uy, Initial residual = 0.010568, Final residual = 6.63721e-06, No Iterations 8
GAMG:  Solving for p, Initial residual = 0.110348, Final residual = 0.00090126, No Iterations 4
time step continuity errors : sum local = 9.32575e-07, global = 3.20474e-09
GAMG:  Solving for p, Initial residual = 0.0686379, Final residual = 9.6422e-08, No Iterations 16
time step continuity errors : sum local = 9.96183e-11, global = 1.98983e-11, cumulative = 1.64651e-09
smoothSolver:  Solving for epsilon, Initial residual = 0.0108088, Final residual = 4.60769e-06, No Iterations 6
smoothSolver:  Solving for k, Initial residual = 0.0155216, Final residual = 6.65396e-06, No Iterations 8
ExecutionTime = 3.0183 s  ClockTime = 9 s

Courant Number mean: 0.613246 max: 4.8587
deltaT = 0.000144689
Time = 0.00262086s

smoothSolver:  Solving for Ux, Initial residual = 0.00750863, Final residual = 6.13032e-06, No Iterations 8
smoothSolver:  Solving for Uy, Initial residual = 0.0107783, Final residual = 7.00999e-06, No Iterations 8
GAMG:  Solving for p, Initial residual = 0.108258, Final residual = 0.000910955, No Iterations 4
time step continuity errors : sum local = 9.66318e-07, global = -1.54692e-10
GAMG:  Solving for p, Initial residual = 0.06777, Final residual = 7.46947e-08, No Iterations 17
time step continuity errors : sum local = 7.90163e-11, global = 1.47561e-11, cumulative = 1.66127e-09
smoothSolver:  Solving for epsilon, Initial residual = 0.0107326, Final residual = 5.04575e-06, No Iterations 6
smoothSolver:  Solving for k, Initial residual = 0.0154242, Final residual = 7.08122e-06, No Iterations 8
ExecutionTime = 3.10754 s  ClockTime = 9 s

Courant Number mean: 0.62598 max: 4.88868
deltaT = 0.000147583
Time = 0.00276844s

smoothSolver:  Solving for Ux, Initial residual = 0.00756901, Final residual = 6.57787e-06, No Iterations 8
smoothSolver:  Solving for Uy, Initial residual = 0.011018, Final residual = 7.38755e-06, No Iterations 8
GAMG:  Solving for p, Initial residual = 0.109593, Final residual = 0.00097184, No Iterations 4
time step continuity errors : sum local = 1.05602e-06, global = 1.88614e-09
GAMG:  Solving for p, Initial residual = 0.0678065, Final residual = 6.87129e-08, No Iterations 17
time step continuity errors : sum local = 7.42598e-11, global = 1.29938e-11, cumulative = 1.67426e-09
smoothSolver:  Solving for epsilon, Initial residual = 0.0107263, Final residual = 5.49849e-06, No Iterations 6
smoothSolver:  Solving for k, Initial residual = 0.0153563, Final residual = 7.49412e-06, No Iterations 8
ExecutionTime = 3.1963 s  ClockTime = 9 s

Courant Number mean: 0.639542 max: 4.92606
deltaT = 0.000147583
Time = 0.00291603s

smoothSolver:  Solving for Ux, Initial residual = 0.00747086, Final residual = 6.33982e-06, No Iterations 8
smoothSolver:  Solving for Uy, Initial residual = 0.0110283, Final residual = 7.00451e-06, No Iterations 8
GAMG:  Solving for p, Initial residual = 0.106188, Final residual = 0.000986615, No Iterations 4
time step continuity errors : sum local = 1.066e-06, global = 6.84831e-10
GAMG:  Solving for p, Initial residual = 0.0666758, Final residual = 9.14439e-08, No Iterations 17
time step continuity errors : sum local = 9.84176e-11, global = 1.86442e-11, cumulative = 1.6929e-09
smoothSolver:  Solving for epsilon, Initial residual = 0.0104961, Final residual = 5.40887e-06, No Iterations 6
smoothSolver:  Solving for k, Initial residual = 0.0150189, Final residual = 7.10233e-06, No Iterations 8
ExecutionTime = 3.28154 s  ClockTime = 9 s

Courant Number mean: 0.640658 max: 4.87875
deltaT = 0.000150723
Time = 0.00306675s

smoothSolver:  Solving for Ux, Initial residual = 0.00753071, Final residual = 6.74362e-06, No Iterations 8
smoothSolver:  Solving for Uy, Initial residual = 0.0112652, Final residual = 7.40315e-06, No Iterations 8
GAMG:  Solving for p, Initial residual = 0.10525, Final residual = 0.00102589, No Iterations 4
time step continuity errors : sum local = 1.13658e-06, global = 1.74557e-09
GAMG:  Solving for p, Initial residual = 0.0672214, Final residual = 8.15933e-08, No Iterations 17
time step continuity errors : sum local = 8.9947e-11, global = 1.56689e-11, cumulative = 1.70857e-09
smoothSolver:  Solving for epsilon, Initial residual = 0.0104519, Final residual = 5.82085e-06, No Iterations 6
smoothSolver:  Solving for k, Initial residual = 0.0150349, Final residual = 7.44384e-06, No Iterations 8
ExecutionTime = 3.3706 s  ClockTime = 9 s

Courant Number mean: 0.655481 max: 4.92711
deltaT = 0.000150723
Time = 0.00321747s

smoothSolver:  Solving for Ux, Initial residual = 0.00743843, Final residual = 6.4276e-06, No Iterations 8
smoothSolver:  Solving for Uy, Initial residual = 0.0112664, Final residual = 7.01719e-06, No Iterations 8
GAMG:  Solving for p, Initial residual = 0.102819, Final residual = 0.000371817, No Iterations 5
time step continuity errors : sum local = 4.09814e-07, global = 2.65325e-09
GAMG:  Solving for p, Initial residual = 0.065731, Final residual = 9.99101e-08, No Iterations 14
time step continuity errors : sum local = 1.09619e-10, global = -1.47018e-11, cumulative = 1.69387e-09
smoothSolver:  Solving for epsilon, Initial residual = 0.0101767, Final residual = 5.62625e-06, No Iterations 6
smoothSolver:  Solving for k, Initial residual = 0.0147486, Final residual = 6.96483e-06, No Iterations 8
ExecutionTime = 3.4523 s  ClockTime = 9 s

Courant Number mean: 0.656701 max: 4.87442
deltaT = 0.000154148
Time = 0.00337162s

smoothSolver:  Solving for Ux, Initial residual = 0.00749235, Final residual = 6.79229e-06, No Iterations 8
smoothSolver:  Solving for Uy, Initial residual = 0.0115112, Final residual = 7.48548e-06, No Iterations 8
GAMG:  Solving for p, Initial residual = 0.103433, Final residual = 0.000434054, No Iterations 5
time step continuity errors : sum local = 4.9139e-07, global = 4.64091e-09
GAMG:  Solving for p, Initial residual = 0.06592, Final residual = 9.0736e-08, No Iterations 14
time step continuity errors : sum local = 1.02033e-10, global = -1.23104e-11, cumulative = 1.68156e-09
smoothSolver:  Solving for epsilon, Initial residual = 0.0101308, Final residual = 6.00756e-06, No Iterations 6
smoothSolver:  Solving for k, Initial residual = 0.0148023, Final residual = 7.2652e-06, No Iterations 8
ExecutionTime = 3.53533 s  ClockTime = 9 s

Courant Number mean: 0.672927 max: 4.93886
deltaT = 0.000154148
Time = 0.00352577s

smoothSolver:  Solving for Ux, Initial residual = 0.00740409, Final residual = 6.44296e-06, No Iterations 8
smoothSolver:  Solving for Uy, Initial residual = 0.0115146, Final residual = 7.12791e-06, No Iterations 8
GAMG:  Solving for p, Initial residual = 0.10163, Final residual = 0.000433503, No Iterations 5
time step continuity errors : sum local = 4.87496e-07, global = 4.87846e-09
GAMG:  Solving for p, Initial residual = 0.0651595, Final residual = 5.95552e-08, No Iterations 15
time step continuity errors : sum local = 6.65283e-11, global = 8.27457e-12, cumulative = 1.68984e-09
smoothSolver:  Solving for epsilon, Initial residual = 0.00983791, Final residual = 5.73285e-06, No Iterations 6
smoothSolver:  Solving for k, Initial residual = 0.0145208, Final residual = 6.73147e-06, No Iterations 8
ExecutionTime = 3.63188 s  ClockTime = 9 s

Courant Number mean: 0.674254 max: 4.88763
deltaT = 0.000154148
Time = 0.00367992s

smoothSolver:  Solving for Ux, Initial residual = 0.00730818, Final residual = 6.09383e-06, No Iterations 8
smoothSolver:  Solving for Uy, Initial residual = 0.0115007, Final residual = 6.79363e-06, No Iterations 8
GAMG:  Solving for p, Initial residual = 0.0990481, Final residual = 0.000438536, No Iterations 5
time step continuity errors : sum local = 4.89876e-07, global = 5.82767e-09
GAMG:  Solving for p, Initial residual = 0.0639329, Final residual = 7.7094e-08, No Iterations 15
time step continuity errors : sum local = 8.55638e-11, global = 1.12241e-11, cumulative = 1.70106e-09
smoothSolver:  Solving for epsilon, Initial residual = 0.00956755, Final residual = 5.45055e-06, No Iterations 6
smoothSolver:  Solving for k, Initial residual = 0.0142823, Final residual = 6.20756e-06, No Iterations 8
ExecutionTime = 3.71969 s  ClockTime = 9 s

Courant Number mean: 0.675608 max: 4.83284
deltaT = 0.000158002
Time = 0.00383792s

smoothSolver:  Solving for Ux, Initial residual = 0.00739465, Final residual = 6.52097e-06, No Iterations 8
smoothSolver:  Solving for Uy, Initial residual = 0.011779, Final residual = 7.41168e-06, No Iterations 8
GAMG:  Solving for p, Initial residual = 0.102308, Final residual = 0.000461717, No Iterations 5
time step continuity errors : sum local = 5.30052e-07, global = 5.74789e-09
GAMG:  Solving for p, Initial residual = 0.0652817, Final residual = 6.85379e-08, No Iterations 15
time step continuity errors : sum local = 7.80103e-11, global = 9.63347e-12, cumulative = 1.71069e-09
smoothSolver:  Solving for epsilon, Initial residual = 0.00953601, Final residual = 5.81739e-06, No Iterations 6
smoothSolver:  Solving for k, Initial residual = 0.0143669, Final residual = 6.46682e-06, No Iterations 8
ExecutionTime = 3.80819 s  ClockTime = 9 s

Courant Number mean: 0.693952 max: 4.90689
deltaT = 0.000158002
Time = 0.00399592s

smoothSolver:  Solving for Ux, Initial residual = 0.0073017, Final residual = 6.16268e-06, No Iterations 8
smoothSolver:  Solving for Uy, Initial residual = 0.0117549, Final residual = 7.10291e-06, No Iterations 8
GAMG:  Solving for p, Initial residual = 0.0994311, Final residual = 0.000477456, No Iterations 5
time step continuity errors : sum local = 5.43347e-07, global = 7.04195e-09
GAMG:  Solving for p, Initial residual = 0.0645066, Final residual = 5.38091e-08, No Iterations 14
time step continuity errors : sum local = 6.08376e-11, global = 6.31539e-12, cumulative = 1.71701e-09
smoothSolver:  Solving for epsilon, Initial residual = 0.00927409, Final residual = 5.51352e-06, No Iterations 6
smoothSolver:  Solving for k, Initial residual = 0.0140914, Final residual = 5.92187e-06, No Iterations 8
ExecutionTime = 3.89164 s  ClockTime = 9 s

Courant Number mean: 0.695407 max: 4.85857
deltaT = 0.000162272
Time = 0.00415819s

smoothSolver:  Solving for Ux, Initial residual = 0.00739272, Final residual = 6.65721e-06, No Iterations 8
smoothSolver:  Solving for Uy, Initial residual = 0.0120372, Final residual = 7.86455e-06, No Iterations 8
GAMG:  Solving for p, Initial residual = 0.0995023, Final residual = 0.000500354, No Iterations 5
time step continuity errors : sum local = 5.86787e-07, global = 6.36315e-09
GAMG:  Solving for p, Initial residual = 0.065309, Final residual = 8.17026e-08, No Iterations 14
time step continuity errors : sum local = 9.51938e-11, global = 1.46399e-11, cumulative = 1.73165e-09
smoothSolver:  Solving for epsilon, Initial residual = 0.00927608, Final residual = 5.93783e-06, No Iterations 6
smoothSolver:  Solving for k, Initial residual = 0.014186, Final residual = 6.19112e-06, No Iterations 8
ExecutionTime = 3.97426 s  ClockTime = 10 s

Courant Number mean: 0.715728 max: 4.93542
deltaT = 0.000162272
Time = 0.00432047s

smoothSolver:  Solving for Ux, Initial residual = 0.00729515, Final residual = 6.29351e-06, No Iterations 8
smoothSolver:  Solving for Uy, Initial residual = 0.012001, Final residual = 7.55577e-06, No Iterations 8
GAMG:  Solving for p, Initial residual = 0.0979107, Final residual = 0.000521649, No Iterations 5
time step continuity errors : sum local = 6.07669e-07, global = 4.62817e-09
GAMG:  Solving for p, Initial residual = 0.0645355, Final residual = 7.33454e-08, No Iterations 15
time step continuity errors : sum local = 8.49682e-11, global = -1.05118e-11, cumulative = 1.72114e-09
smoothSolver:  Solving for epsilon, Initial residual = 0.00902392, Final residual = 5.63013e-06, No Iterations 6
smoothSolver:  Solving for k, Initial residual = 0.0139027, Final residual = 5.6382e-06, No Iterations 8
ExecutionTime = 4.06133 s  ClockTime = 10 s

Courant Number mean: 0.717249 max: 4.87978
deltaT = 0.000162272
Time = 0.00448274s

smoothSolver:  Solving for Ux, Initial residual = 0.00719561, Final residual = 5.9502e-06, No Iterations 8
smoothSolver:  Solving for Uy, Initial residual = 0.0119555, Final residual = 7.25218e-06, No Iterations 8
GAMG:  Solving for p, Initial residual = 0.0949145, Final residual = 0.000533273, No Iterations 5
time step continuity errors : sum local = 6.17449e-07, global = 4.11769e-09
GAMG:  Solving for p, Initial residual = 0.0628991, Final residual = 7.64634e-08, No Iterations 15
time step continuity errors : sum local = 8.80479e-11, global = -1.14967e-11, cumulative = 1.70964e-09
smoothSolver:  Solving for epsilon, Initial residual = 0.00879279, Final residual = 5.35374e-06, No Iterations 6
smoothSolver:  Solving for k, Initial residual = 0.0136171, Final residual = 5.12399e-06, No Iterations 8
ExecutionTime = 4.14867 s  ClockTime = 10 s

Courant Number mean: 0.718751 max: 4.83425
deltaT = 0.00016719
Time = 0.00464993s

smoothSolver:  Solving for Ux, Initial residual = 0.00730715, Final residual = 6.55216e-06, No Iterations 8
smoothSolver:  Solving for Uy, Initial residual = 0.0122613, Final residual = 8.17952e-06, No Iterations 8
GAMG:  Solving for p, Initial residual = 0.0968726, Final residual = 0.000557787, No Iterations 5
time step continuity errors : sum local = 6.69241e-07, global = 4.5433e-09
GAMG:  Solving for p, Initial residual = 0.0639588, Final residual = 6.04724e-08, No Iterations 15
time step continuity errors : sum local = 7.21185e-11, global = -1.11244e-11, cumulative = 1.69852e-09
smoothSolver:  Solving for epsilon, Initial residual = 0.0088107, Final residual = 5.87148e-06, No Iterations 6
smoothSolver:  Solving for k, Initial residual = 0.0137342, Final residual = 5.4207e-06, No Iterations 8
ExecutionTime = 4.24413 s  ClockTime = 10 s

Courant Number mean: 0.742118 max: 4.93075
deltaT = 0.00016719
Time = 0.00481712s

smoothSolver:  Solving for Ux, Initial residual = 0.00720146, Final residual = 6.20151e-06, No Iterations 8
smoothSolver:  Solving for Uy, Initial residual = 0.0122003, Final residual = 7.85042e-06, No Iterations 8
GAMG:  Solving for p, Initial residual = 0.0948147, Final residual = 0.000577416, No Iterations 5
time step continuity errors : sum local = 6.88843e-07, global = 2.19768e-09
GAMG:  Solving for p, Initial residual = 0.0635463, Final residual = 7.71737e-08, No Iterations 15
time step continuity errors : sum local = 9.16365e-11, global = -1.31621e-11, cumulative = 1.68535e-09
smoothSolver:  Solving for epsilon, Initial residual = 0.00856447, Final residual = 5.57909e-06, No Iterations 6
smoothSolver:  Solving for k, Initial residual = 0.0134344, Final residual = 4.91889e-06, No Iterations 8
ExecutionTime = 4.33007 s  ClockTime = 10 s

Courant Number mean: 0.743692 max: 4.87989
deltaT = 0.00016719
Time = 0.00498431s

smoothSolver:  Solving for Ux, Initial residual = 0.0070962, Final residual = 5.87159e-06, No Iterations 8
smoothSolver:  Solving for Uy, Initial residual = 0.0121327, Final residual = 7.52226e-06, No Iterations 8
GAMG:  Solving for p, Initial residual = 0.0926337, Final residual = 0.000581623, No Iterations 5
time step continuity errors : sum local = 6.90635e-07, global = 3.09285e-09
GAMG:  Solving for p, Initial residual = 0.062161, Final residual = 6.86236e-08, No Iterations 15
time step continuity errors : sum local = 8.11392e-11, global = 1.54306e-11, cumulative = 1.70078e-09
smoothSolver:  Solving for epsilon, Initial residual = 0.00834209, Final residual = 5.32e-06, No Iterations 6
smoothSolver:  Solving for k, Initial residual = 0.0131449, Final residual = 9.15711e-06, No Iterations 7
ExecutionTime = 4.41489 s  ClockTime = 10 s

Courant Number mean: 0.745267 max: 4.8284
deltaT = 0.000172955
Time = 0.00515726s

smoothSolver:  Solving for Ux, Initial residual = 0.0072273, Final residual = 6.61546e-06, No Iterations 8
smoothSolver:  Solving for Uy, Initial residual = 0.0124732, Final residual = 8.65718e-06, No Iterations 8
GAMG:  Solving for p, Initial residual = 0.0944748, Final residual = 0.000605877, No Iterations 5
time step continuity errors : sum local = 7.49867e-07, global = 3.90032e-09
GAMG:  Solving for p, Initial residual = 0.0636989, Final residual = 9.39363e-08, No Iterations 16
time step continuity errors : sum local = 1.15684e-10, global = -2.14136e-11, cumulative = 1.67937e-09
smoothSolver:  Solving for epsilon, Initial residual = 0.00840539, Final residual = 5.97016e-06, No Iterations 6
smoothSolver:  Solving for k, Initial residual = 0.0132916, Final residual = 9.85606e-06, No Iterations 7
ExecutionTime = 4.51383 s  ClockTime = 10 s

Courant Number mean: 0.772606 max: 4.94238
deltaT = 0.000172955
Time = 0.00533022s

smoothSolver:  Solving for Ux, Initial residual = 0.00712014, Final residual = 6.2712e-06, No Iterations 8
smoothSolver:  Solving for Uy, Initial residual = 0.0123881, Final residual = 8.27638e-06, No Iterations 8
GAMG:  Solving for p, Initial residual = 0.09363, Final residual = 0.00062199, No Iterations 5
time step continuity errors : sum local = 7.65792e-07, global = 1.88316e-09
GAMG:  Solving for p, Initial residual = 0.0632046, Final residual = 8.60191e-08, No Iterations 16
time step continuity errors : sum local = 1.05507e-10, global = -2.06714e-11, cumulative = 1.6587e-09
smoothSolver:  Solving for epsilon, Initial residual = 0.00821152, Final residual = 5.69422e-06, No Iterations 6
smoothSolver:  Solving for k, Initial residual = 0.0129891, Final residual = 9.04338e-06, No Iterations 7
ExecutionTime = 4.6111 s  ClockTime = 10 s

Courant Number mean: 0.774211 max: 4.89624
deltaT = 0.000172955
Time = 0.00550317s

smoothSolver:  Solving for Ux, Initial residual = 0.00701167, Final residual = 5.94262e-06, No Iterations 8
smoothSolver:  Solving for Uy, Initial residual = 0.012297, Final residual = 7.89659e-06, No Iterations 8
GAMG:  Solving for p, Initial residual = 0.0927907, Final residual = 0.000621994, No Iterations 5
time step continuity errors : sum local = 7.62084e-07, global = 3.42525e-09
GAMG:  Solving for p, Initial residual = 0.0617428, Final residual = 6.97694e-08, No Iterations 17
time step continuity errors : sum local = 8.5154e-11, global = 1.52248e-11, cumulative = 1.67392e-09
smoothSolver:  Solving for epsilon, Initial residual = 0.00799658, Final residual = 5.4394e-06, No Iterations 6
smoothSolver:  Solving for k, Initial residual = 0.0126914, Final residual = 8.31027e-06, No Iterations 7
ExecutionTime = 4.70759 s  ClockTime = 10 s

Courant Number mean: 0.775779 max: 4.84948
deltaT = 0.000172955
Time = 0.00567613s

smoothSolver:  Solving for Ux, Initial residual = 0.00689865, Final residual = 5.63182e-06, No Iterations 8
smoothSolver:  Solving for Uy, Initial residual = 0.0121978, Final residual = 7.52661e-06, No Iterations 8
GAMG:  Solving for p, Initial residual = 0.0902269, Final residual = 0.000625361, No Iterations 5
time step continuity errors : sum local = 7.61981e-07, global = 3.16219e-09
GAMG:  Solving for p, Initial residual = 0.060322, Final residual = 5.92994e-08, No Iterations 16
time step continuity errors : sum local = 7.19372e-11, global = -1.58759e-11, cumulative = 1.65805e-09
smoothSolver:  Solving for epsilon, Initial residual = 0.00780951, Final residual = 5.19779e-06, No Iterations 6
smoothSolver:  Solving for k, Initial residual = 0.0123991, Final residual = 7.65128e-06, No Iterations 7
ExecutionTime = 4.80465 s  ClockTime = 10 s

Courant Number mean: 0.777308 max: 4.80213
deltaT = 0.000172955
Time = 0.00584908s

smoothSolver:  Solving for Ux, Initial residual = 0.00679019, Final residual = 5.33759e-06, No Iterations 8
smoothSolver:  Solving for Uy, Initial residual = 0.0120955, Final residual = 7.17382e-06, No Iterations 8
GAMG:  Solving for p, Initial residual = 0.0903374, Final residual = 0.000626541, No Iterations 5
time step continuity errors : sum local = 7.58401e-07, global = 3.96812e-09
GAMG:  Solving for p, Initial residual = 0.0593782, Final residual = 9.98331e-08, No Iterations 16
time step continuity errors : sum local = 1.20309e-10, global = 2.93319e-11, cumulative = 1.68738e-09
smoothSolver:  Solving for epsilon, Initial residual = 0.00768464, Final residual = 4.98393e-06, No Iterations 6
smoothSolver:  Solving for k, Initial residual = 0.0121096, Final residual = 7.06062e-06, No Iterations 7
ExecutionTime = 4.89096 s  ClockTime = 10 s

Courant Number mean: 0.778801 max: 4.75418
deltaT = 0.000180475
Time = 0.00602956s

smoothSolver:  Solving for Ux, Initial residual = 0.00696425, Final residual = 6.30769e-06, No Iterations 8
smoothSolver:  Solving for Uy, Initial residual = 0.0125019, Final residual = 8.64331e-06, No Iterations 8
GAMG:  Solving for p, Initial residual = 0.0938667, Final residual = 0.000655718, No Iterations 5
time step continuity errors : sum local = 8.34588e-07, global = 6.50517e-09
GAMG:  Solving for p, Initial residual = 0.0621264, Final residual = 8.73529e-08, No Iterations 18
time step continuity errors : sum local = 1.10403e-10, global = 2.25373e-11, cumulative = 1.70992e-09
smoothSolver:  Solving for epsilon, Initial residual = 0.00777367, Final residual = 5.84571e-06, No Iterations 6
smoothSolver:  Solving for k, Initial residual = 0.0123513, Final residual = 8.02965e-06, No Iterations 7
ExecutionTime = 4.98797 s  ClockTime = 11 s

Courant Number mean: 0.814269 max: 4.91157
deltaT = 0.000180475
Time = 0.00621003s

smoothSolver:  Solving for Ux, Initial residual = 0.00684722, Final residual = 5.97532e-06, No Iterations 8
smoothSolver:  Solving for Uy, Initial residual = 0.0123765, Final residual = 8.22373e-06, No Iterations 8
GAMG:  Solving for p, Initial residual = 0.0915232, Final residual = 0.000672802, No Iterations 5
time step continuity errors : sum local = 8.48704e-07, global = 4.88873e-09
GAMG:  Solving for p, Initial residual = 0.0615673, Final residual = 7.04159e-08, No Iterations 18
time step continuity errors : sum local = 8.84752e-11, global = 2.04298e-11, cumulative = 1.73035e-09
smoothSolver:  Solving for epsilon, Initial residual = 0.00758184, Final residual = 5.58151e-06, No Iterations 6
smoothSolver:  Solving for k, Initial residual = 0.0120567, Final residual = 7.45441e-06, No Iterations 7
ExecutionTime = 5.0812 s  ClockTime = 11 s

Courant Number mean: 0.815857 max: 4.86709
deltaT = 0.000180475
Time = 0.00639051s

smoothSolver:  Solving for Ux, Initial residual = 0.00672762, Final residual = 5.65483e-06, No Iterations 8
smoothSolver:  Solving for Uy, Initial residual = 0.0122455, Final residual = 7.8143e-06, No Iterations 8
GAMG:  Solving for p, Initial residual = 0.08858, Final residual = 0.000665395, No Iterations 5
time step continuity errors : sum local = 8.34259e-07, global = 5.0932e-09
GAMG:  Solving for p, Initial residual = 0.0602095, Final residual = 8.05513e-08, No Iterations 18
time step continuity errors : sum local = 1.00723e-10, global = 2.34805e-11, cumulative = 1.75383e-09
smoothSolver:  Solving for epsilon, Initial residual = 0.00737408, Final residual = 5.33189e-06, No Iterations 6
smoothSolver:  Solving for k, Initial residual = 0.0117839, Final residual = 6.93741e-06, No Iterations 7
ExecutionTime = 5.17983 s  ClockTime = 11 s

Courant Number mean: 0.817397 max: 4.82213
deltaT = 0.000180475
Time = 0.00657098s

smoothSolver:  Solving for Ux, Initial residual = 0.00661008, Final residual = 5.35237e-06, No Iterations 8
smoothSolver:  Solving for Uy, Initial residual = 0.0121121, Final residual = 7.41802e-06, No Iterations 8
GAMG:  Solving for p, Initial residual = 0.0857041, Final residual = 0.000662827, No Iterations 5
time step continuity errors : sum local = 8.27205e-07, global = 4.89473e-09
GAMG:  Solving for p, Initial residual = 0.0588444, Final residual = 7.17607e-08, No Iterations 19
time step continuity errors : sum local = 8.9342e-11, global = -1.75679e-11, cumulative = 1.73626e-09
smoothSolver:  Solving for epsilon, Initial residual = 0.00717151, Final residual = 5.08919e-06, No Iterations 6
smoothSolver:  Solving for k, Initial residual = 0.0115199, Final residual = 6.47547e-06, No Iterations 7
ExecutionTime = 5.2767 s  ClockTime = 11 s

Courant Number mean: 0.818889 max: 4.7766
deltaT = 0.000180475
Time = 0.00675146s

smoothSolver:  Solving for Ux, Initial residual = 0.00649368, Final residual = 5.06399e-06, No Iterations 8
smoothSolver:  Solving for Uy, Initial residual = 0.0119757, Final residual = 7.04358e-06, No Iterations 8
GAMG:  Solving for p, Initial residual = 0.0836693, Final residual = 0.000657614, No Iterations 5
time step continuity errors : sum local = 8.17044e-07, global = 4.51302e-09
GAMG:  Solving for p, Initial residual = 0.0573738, Final residual = 7.87989e-08, No Iterations 19
time step continuity errors : sum local = 9.7687e-11, global = -1.94842e-11, cumulative = 1.71678e-09
smoothSolver:  Solving for epsilon, Initial residual = 0.00699422, Final residual = 4.86033e-06, No Iterations 6
smoothSolver:  Solving for k, Initial residual = 0.0112635, Final residual = 6.05867e-06, No Iterations 7
ExecutionTime = 5.37571 s  ClockTime = 11 s

Courant Number mean: 0.820331 max: 4.73038
deltaT = 0.000180475
Time = 0.00693193s

smoothSolver:  Solving for Ux, Initial residual = 0.00637919, Final residual = 9.56351e-06, No Iterations 7
smoothSolver:  Solving for Uy, Initial residual = 0.0118357, Final residual = 6.69009e-06, No Iterations 8
GAMG:  Solving for p, Initial residual = 0.0818539, Final residual = 0.000653424, No Iterations 5
time step continuity errors : sum local = 8.08246e-07, global = 5.91297e-09
GAMG:  Solving for p, Initial residual = 0.0558294, Final residual = 8.88836e-08, No Iterations 19
time step continuity errors : sum local = 1.0974e-10, global = -2.56539e-11, cumulative = 1.69112e-09
smoothSolver:  Solving for epsilon, Initial residual = 0.00681916, Final residual = 4.64977e-06, No Iterations 6
smoothSolver:  Solving for k, Initial residual = 0.0110089, Final residual = 5.67976e-06, No Iterations 7
ExecutionTime = 5.47062 s  ClockTime = 11 s

Courant Number mean: 0.821738 max: 4.68838
deltaT = 0.000191754
Time = 0.00712369s

smoothSolver:  Solving for Ux, Initial residual = 0.00665193, Final residual = 6.24237e-06, No Iterations 8
smoothSolver:  Solving for Uy, Initial residual = 0.0124164, Final residual = 8.93065e-06, No Iterations 8
GAMG:  Solving for p, Initial residual = 0.0868467, Final residual = 0.000696601, No Iterations 5
time step continuity errors : sum local = 9.32316e-07, global = 7.1261e-09
GAMG:  Solving for p, Initial residual = 0.059326, Final residual = 7.68752e-08, No Iterations 19
time step continuity errors : sum local = 1.02492e-10, global = -2.5166e-11, cumulative = 1.66596e-09
smoothSolver:  Solving for epsilon, Initial residual = 0.00706618, Final residual = 5.96932e-06, No Iterations 6
smoothSolver:  Solving for k, Initial residual = 0.0114299, Final residual = 7.20481e-06, No Iterations 7
ExecutionTime = 5.56821 s  ClockTime = 11 s

Courant Number mean: 0.874641 max: 4.93559
deltaT = 0.000191754
Time = 0.00731544s

smoothSolver:  Solving for Ux, Initial residual = 0.00652913, Final residual = 5.89336e-06, No Iterations 8
smoothSolver:  Solving for Uy, Initial residual = 0.0122504, Final residual = 8.48036e-06, No Iterations 8
GAMG:  Solving for p, Initial residual = 0.085197, Final residual = 0.000714694, No Iterations 5
time step continuity errors : sum local = 9.51183e-07, global = 6.30407e-10
GAMG:  Solving for p, Initial residual = 0.0590745, Final residual = 9.81526e-08, No Iterations 17
time step continuity errors : sum local = 1.3052e-10, global = -2.81658e-11, cumulative = 1.63779e-09
smoothSolver:  Solving for epsilon, Initial residual = 0.00687417, Final residual = 5.68193e-06, No Iterations 6
smoothSolver:  Solving for k, Initial residual = 0.0111648, Final residual = 6.79183e-06, No Iterations 7
ExecutionTime = 5.68568 s  ClockTime = 11 s

Courant Number mean: 0.876149 max: 4.8896
deltaT = 0.000191754
Time = 0.00750719s

smoothSolver:  Solving for Ux, Initial residual = 0.00640795, Final residual = 5.57086e-06, No Iterations 8
smoothSolver:  Solving for Uy, Initial residual = 0.012075, Final residual = 8.04048e-06, No Iterations 8
GAMG:  Solving for p, Initial residual = 0.0821297, Final residual = 0.00070886, No Iterations 5
time step continuity errors : sum local = 9.40438e-07, global = 5.88656e-09
GAMG:  Solving for p, Initial residual = 0.0574787, Final residual = 7.54457e-08, No Iterations 19
time step continuity errors : sum local = 9.99404e-11, global = -2.56178e-11, cumulative = 1.61217e-09
smoothSolver:  Solving for epsilon, Initial residual = 0.00668983, Final residual = 5.41382e-06, No Iterations 6
smoothSolver:  Solving for k, Initial residual = 0.0109038, Final residual = 6.41275e-06, No Iterations 7
ExecutionTime = 5.78033 s  ClockTime = 11 s

Courant Number mean: 0.877643 max: 4.8433
deltaT = 0.000191754
Time = 0.00769895s

smoothSolver:  Solving for Ux, Initial residual = 0.00628302, Final residual = 5.25654e-06, No Iterations 8
smoothSolver:  Solving for Uy, Initial residual = 0.0119018, Final residual = 7.62065e-06, No Iterations 8
GAMG:  Solving for p, Initial residual = 0.0797866, Final residual = 0.000704115, No Iterations 5
time step continuity errors : sum local = 9.2962e-07, global = 2.14668e-09
GAMG:  Solving for p, Initial residual = 0.0559773, Final residual = 7.86947e-08, No Iterations 19
time step continuity errors : sum local = 1.03809e-10, global = -2.12448e-11, cumulative = 1.59093e-09
smoothSolver:  Solving for epsilon, Initial residual = 0.00651453, Final residual = 5.15844e-06, No Iterations 6
smoothSolver:  Solving for k, Initial residual = 0.0106507, Final residual = 6.06206e-06, No Iterations 7
ExecutionTime = 5.87952 s  ClockTime = 11 s

Courant Number mean: 0.879091 max: 4.79646
deltaT = 0.000191754
Time = 0.0078907s

smoothSolver:  Solving for Ux, Initial residual = 0.00616639, Final residual = 9.96856e-06, No Iterations 7
smoothSolver:  Solving for Uy, Initial residual = 0.0117262, Final residual = 7.22704e-06, No Iterations 8
GAMG:  Solving for p, Initial residual = 0.0778515, Final residual = 0.000703234, No Iterations 5
time step continuity errors : sum local = 9.25031e-07, global = 5.23167e-09
GAMG:  Solving for p, Initial residual = 0.054403, Final residual = 8.87798e-08, No Iterations 18
time step continuity errors : sum local = 1.16628e-10, global = 1.6121e-11, cumulative = 1.60705e-09
smoothSolver:  Solving for epsilon, Initial residual = 0.00633544, Final residual = 4.91415e-06, No Iterations 6
smoothSolver:  Solving for k, Initial residual = 0.0104078, Final residual = 5.73693e-06, No Iterations 7
ExecutionTime = 5.97979 s  ClockTime = 12 s

Courant Number mean: 0.880494 max: 4.7561
deltaT = 0.000191754
Time = 0.00808246s

smoothSolver:  Solving for Ux, Initial residual = 0.00604806, Final residual = 9.48028e-06, No Iterations 7
smoothSolver:  Solving for Uy, Initial residual = 0.0115487, Final residual = 6.85773e-06, No Iterations 8
GAMG:  Solving for p, Initial residual = 0.0755265, Final residual = 0.000691058, No Iterations 5
time step continuity errors : sum local = 9.0497e-07, global = 4.79698e-09
GAMG:  Solving for p, Initial residual = 0.0529987, Final residual = 6.22912e-08, No Iterations 20
time step continuity errors : sum local = 8.15091e-11, global = 1.56351e-11, cumulative = 1.62268e-09
smoothSolver:  Solving for epsilon, Initial residual = 0.00615648, Final residual = 4.67942e-06, No Iterations 6
smoothSolver:  Solving for k, Initial residual = 0.0101685, Final residual = 5.43614e-06, No Iterations 7
ExecutionTime = 6.21 s  ClockTime = 12 s

Courant Number mean: 0.881858 max: 4.71687
deltaT = 0.000191754
Time = 0.00827421s

smoothSolver:  Solving for Ux, Initial residual = 0.00593469, Final residual = 9.02271e-06, No Iterations 7
smoothSolver:  Solving for Uy, Initial residual = 0.0113701, Final residual = 6.50922e-06, No Iterations 8
GAMG:  Solving for p, Initial residual = 0.0737442, Final residual = 0.000688576, No Iterations 5
time step continuity errors : sum local = 8.98208e-07, global = 6.45479e-09
GAMG:  Solving for p, Initial residual = 0.0516875, Final residual = 8.81903e-08, No Iterations 19
time step continuity errors : sum local = 1.14847e-10, global = -2.78712e-11, cumulative = 1.59481e-09
smoothSolver:  Solving for epsilon, Initial residual = 0.00599571, Final residual = 4.46222e-06, No Iterations 6
smoothSolver:  Solving for k, Initial residual = 0.00993139, Final residual = 5.15471e-06, No Iterations 7
ExecutionTime = 6.44195 s  ClockTime = 12 s

Courant Number mean: 0.883179 max: 4.67616
deltaT = 0.000191754
Time = 0.00846597s

smoothSolver:  Solving for Ux, Initial residual = 0.00582159, Final residual = 8.58002e-06, No Iterations 7
smoothSolver:  Solving for Uy, Initial residual = 0.0111926, Final residual = 6.17709e-06, No Iterations 8
GAMG:  Solving for p, Initial residual = 0.0727385, Final residual = 0.000672024, No Iterations 5
time step continuity errors : sum local = 8.722e-07, global = 5.49769e-09
GAMG:  Solving for p, Initial residual = 0.0504081, Final residual = 8.31635e-08, No Iterations 18
time step continuity errors : sum local = 1.07785e-10, global = 2.56512e-11, cumulative = 1.62046e-09
smoothSolver:  Solving for epsilon, Initial residual = 0.00582406, Final residual = 4.24929e-06, No Iterations 6
smoothSolver:  Solving for k, Initial residual = 0.00970458, Final residual = 4.89099e-06, No Iterations 7
ExecutionTime = 6.54558 s  ClockTime = 12 s

Courant Number mean: 0.884466 max: 4.63384
deltaT = 0.000191754
Time = 0.00865772s

smoothSolver:  Solving for Ux, Initial residual = 0.0057103, Final residual = 8.1684e-06, No Iterations 7
smoothSolver:  Solving for Uy, Initial residual = 0.0110129, Final residual = 5.86219e-06, No Iterations 8
GAMG:  Solving for p, Initial residual = 0.0704312, Final residual = 0.000665855, No Iterations 5
time step continuity errors : sum local = 8.61201e-07, global = 9.3774e-09
GAMG:  Solving for p, Initial residual = 0.0490084, Final residual = 8.44125e-08, No Iterations 19
time step continuity errors : sum local = 1.0896e-10, global = -2.53871e-11, cumulative = 1.59508e-09
smoothSolver:  Solving for epsilon, Initial residual = 0.00565104, Final residual = 4.04683e-06, No Iterations 6
smoothSolver:  Solving for k, Initial residual = 0.00948513, Final residual = 4.64297e-06, No Iterations 7
ExecutionTime = 6.67432 s  ClockTime = 12 s

Courant Number mean: 0.885727 max: 4.59846
deltaT = 0.000191754
Time = 0.00884947s

smoothSolver:  Solving for Ux, Initial residual = 0.00559916, Final residual = 7.77041e-06, No Iterations 7
smoothSolver:  Solving for Uy, Initial residual = 0.0108303, Final residual = 5.56978e-06, No Iterations 8
GAMG:  Solving for p, Initial residual = 0.068144, Final residual = 0.000647544, No Iterations 5
time step continuity errors : sum local = 8.33524e-07, global = 7.62808e-09
GAMG:  Solving for p, Initial residual = 0.047731, Final residual = 9.23841e-08, No Iterations 18
time step continuity errors : sum local = 1.18715e-10, global = 2.42948e-11, cumulative = 1.61937e-09
smoothSolver:  Solving for epsilon, Initial residual = 0.00549899, Final residual = 3.86063e-06, No Iterations 6
smoothSolver:  Solving for k, Initial residual = 0.00926451, Final residual = 4.41166e-06, No Iterations 7
ExecutionTime = 6.77348 s  ClockTime = 12 s

Courant Number mean: 0.886956 max: 4.56295
deltaT = 0.000191754
Time = 0.00904123s

smoothSolver:  Solving for Ux, Initial residual = 0.00549582, Final residual = 7.40245e-06, No Iterations 7
smoothSolver:  Solving for Uy, Initial residual = 0.0106511, Final residual = 5.29203e-06, No Iterations 8
GAMG:  Solving for p, Initial residual = 0.0667851, Final residual = 0.000642687, No Iterations 5
time step continuity errors : sum local = 8.23753e-07, global = 1.22475e-08
GAMG:  Solving for p, Initial residual = 0.0465253, Final residual = 7.82127e-08, No Iterations 19
time step continuity errors : sum local = 1.00059e-10, global = -2.19907e-11, cumulative = 1.59738e-09
smoothSolver:  Solving for epsilon, Initial residual = 0.0053397, Final residual = 3.6803e-06, No Iterations 6
smoothSolver:  Solving for k, Initial residual = 0.00905144, Final residual = 9.94715e-06, No Iterations 6
ExecutionTime = 6.86808 s  ClockTime = 12 s

Courant Number mean: 0.88817 max: 4.52501
deltaT = 0.000191754
Time = 0.00923298s

smoothSolver:  Solving for Ux, Initial residual = 0.00538826, Final residual = 7.045e-06, No Iterations 7
smoothSolver:  Solving for Uy, Initial residual = 0.0104667, Final residual = 5.02785e-06, No Iterations 8
GAMG:  Solving for p, Initial residual = 0.0650324, Final residual = 0.000621642, No Iterations 5
time step continuity errors : sum local = 7.93417e-07, global = 8.71319e-09
GAMG:  Solving for p, Initial residual = 0.0452096, Final residual = 9.76236e-08, No Iterations 18
time step continuity errors : sum local = 1.24392e-10, global = 2.47342e-11, cumulative = 1.62211e-09
smoothSolver:  Solving for epsilon, Initial residual = 0.00518837, Final residual = 9.59588e-06, No Iterations 5
smoothSolver:  Solving for k, Initial residual = 0.00883775, Final residual = 9.51796e-06, No Iterations 6
ExecutionTime = 6.96239 s  ClockTime = 13 s

Courant Number mean: 0.889372 max: 4.48987
deltaT = 0.000191754
Time = 0.00942474s

smoothSolver:  Solving for Ux, Initial residual = 0.00528979, Final residual = 6.71771e-06, No Iterations 7
smoothSolver:  Solving for Uy, Initial residual = 0.010288, Final residual = 4.78272e-06, No Iterations 8
GAMG:  Solving for p, Initial residual = 0.0633168, Final residual = 0.000617456, No Iterations 5
time step continuity errors : sum local = 7.84711e-07, global = 1.43654e-08
GAMG:  Solving for p, Initial residual = 0.0440598, Final residual = 6.54691e-08, No Iterations 19
time step continuity errors : sum local = 8.30149e-11, global = -1.7409e-11, cumulative = 1.60471e-09
smoothSolver:  Solving for epsilon, Initial residual = 0.0050451, Final residual = 9.22085e-06, No Iterations 5
smoothSolver:  Solving for k, Initial residual = 0.00863392, Final residual = 9.11197e-06, No Iterations 6
ExecutionTime = 7.06714 s  ClockTime = 13 s

Courant Number mean: 0.890546 max: 4.45829
deltaT = 0.000191754
Time = 0.00961649s

smoothSolver:  Solving for Ux, Initial residual = 0.00518795, Final residual = 6.39725e-06, No Iterations 7
smoothSolver:  Solving for Uy, Initial residual = 0.01011, Final residual = 4.55023e-06, No Iterations 8
GAMG:  Solving for p, Initial residual = 0.0609622, Final residual = 0.000596464, No Iterations 5
time step continuity errors : sum local = 7.5448e-07, global = 1.01687e-08
GAMG:  Solving for p, Initial residual = 0.0427584, Final residual = 9.50808e-08, No Iterations 18
time step continuity errors : sum local = 1.20061e-10, global = 2.31382e-11, cumulative = 1.62784e-09
smoothSolver:  Solving for epsilon, Initial residual = 0.00489854, Final residual = 8.85425e-06, No Iterations 5
smoothSolver:  Solving for k, Initial residual = 0.00843238, Final residual = 8.72677e-06, No Iterations 6
ExecutionTime = 7.18006 s  ClockTime = 13 s

Courant Number mean: 0.891689 max: 4.42342
deltaT = 0.000191754
Time = 0.00980825s

smoothSolver:  Solving for Ux, Initial residual = 0.00509485, Final residual = 6.10264e-06, No Iterations 7
smoothSolver:  Solving for Uy, Initial residual = 0.009936, Final residual = 9.99099e-06, No Iterations 7
GAMG:  Solving for p, Initial residual = 0.0597677, Final residual = 0.000592389, No Iterations 5
time step continuity errors : sum local = 7.46864e-07, global = 1.61077e-08
GAMG:  Solving for p, Initial residual = 0.0416325, Final residual = 8.28784e-08, No Iterations 18
time step continuity errors : sum local = 1.04225e-10, global = 2.16706e-11, cumulative = 1.64951e-09
smoothSolver:  Solving for epsilon, Initial residual = 0.00476603, Final residual = 8.51603e-06, No Iterations 5
smoothSolver:  Solving for k, Initial residual = 0.00823336, Final residual = 8.35038e-06, No Iterations 6
ExecutionTime = 7.28034 s  ClockTime = 13 s

Courant Number mean: 0.892809 max: 4.39162
deltaT = 0.000191754
Time = 0.01s

smoothSolver:  Solving for Ux, Initial residual = 0.00499773, Final residual = 5.81533e-06, No Iterations 7
smoothSolver:  Solving for Uy, Initial residual = 0.0097615, Final residual = 9.56822e-06, No Iterations 7
GAMG:  Solving for p, Initial residual = 0.0581535, Final residual = 0.000572094, No Iterations 5
time step continuity errors : sum local = 7.17395e-07, global = 1.12312e-08
GAMG:  Solving for p, Initial residual = 0.0404719, Final residual = 8.07513e-08, No Iterations 18
time step continuity errors : sum local = 1.01072e-10, global = 1.93508e-11, cumulative = 1.66887e-09
smoothSolver:  Solving for epsilon, Initial residual = 0.00463951, Final residual = 8.1907e-06, No Iterations 5
smoothSolver:  Solving for k, Initial residual = 0.00803957, Final residual = 7.99086e-06, No Iterations 6
ExecutionTime = 7.43243 s  ClockTime = 13 s

Courant Number mean: 0.893905 max: 4.36229
deltaT = 0.000217391
Time = 0.0102174s

smoothSolver:  Solving for Ux, Initial residual = 0.00555423, Final residual = 5.16538e-06, No Iterations 8
smoothSolver:  Solving for Uy, Initial residual = 0.0108557, Final residual = 8.22252e-06, No Iterations 8
GAMG:  Solving for p, Initial residual = 0.0682431, Final residual = 0.000661851, No Iterations 5
time step continuity errors : sum local = 9.79108e-07, global = 1.35367e-08
GAMG:  Solving for p, Initial residual = 0.0469991, Final residual = 8.75892e-08, No Iterations 18
time step continuity errors : sum local = 1.28536e-10, global = 2.6548e-11, cumulative = 1.69541e-09
smoothSolver:  Solving for epsilon, Initial residual = 0.00511228, Final residual = 5.26138e-06, No Iterations 6
smoothSolver:  Solving for k, Initial residual = 0.00886758, Final residual = 6.0002e-06, No Iterations 7
ExecutionTime = 7.53194 s  ClockTime = 13 s

Courant Number mean: 1.01479 max: 4.90227
deltaT = 0.000217391
Time = 0.0104348s

smoothSolver:  Solving for Ux, Initial residual = 0.0054461, Final residual = 4.88992e-06, No Iterations 8
smoothSolver:  Solving for Uy, Initial residual = 0.0106445, Final residual = 7.8215e-06, No Iterations 8
GAMG:  Solving for p, Initial residual = 0.0667461, Final residual = 0.000655884, No Iterations 5
time step continuity errors : sum local = 9.62883e-07, global = 1.41708e-08
GAMG:  Solving for p, Initial residual = 0.0475465, Final residual = 9.4821e-08, No Iterations 17
time step continuity errors : sum local = 1.38955e-10, global = 3.0551e-11, cumulative = 1.72596e-09
smoothSolver:  Solving for epsilon, Initial residual = 0.00496445, Final residual = 5.01113e-06, No Iterations 6
smoothSolver:  Solving for k, Initial residual = 0.00863552, Final residual = 5.71103e-06, No Iterations 7
ExecutionTime = 7.6512 s  ClockTime = 13 s

Courant Number mean: 1.01615 max: 4.86493
deltaT = 0.000222447
Time = 0.0106572s

smoothSolver:  Solving for Ux, Initial residual = 0.00546023, Final residual = 5.24934e-06, No Iterations 8
smoothSolver:  Solving for Uy, Initial residual = 0.010662, Final residual = 8.47642e-06, No Iterations 8
GAMG:  Solving for p, Initial residual = 0.0648073, Final residual = 0.000313446, No Iterations 6
time step continuity errors : sum local = 4.73016e-07, global = 1.97863e-08
GAMG:  Solving for p, Initial residual = 0.0470283, Final residual = 8.81243e-08, No Iterations 17
time step continuity errors : sum local = 1.32375e-10, global = 2.93889e-11, cumulative = 1.75535e-09
smoothSolver:  Solving for epsilon, Initial residual = 0.00493589, Final residual = 5.34385e-06, No Iterations 6
smoothSolver:  Solving for k, Initial residual = 0.00860491, Final residual = 6.1055e-06, No Iterations 7
ExecutionTime = 7.75015 s  ClockTime = 13 s

Courant Number mean: 1.04116 max: 4.94065
deltaT = 0.000222447
Time = 0.0108797s

smoothSolver:  Solving for Ux, Initial residual = 0.00534818, Final residual = 4.96252e-06, No Iterations 8
smoothSolver:  Solving for Uy, Initial residual = 0.0104221, Final residual = 8.0274e-06, No Iterations 8
GAMG:  Solving for p, Initial residual = 0.0631995, Final residual = 0.000309244, No Iterations 6
time step continuity errors : sum local = 4.64123e-07, global = 1.54563e-08
GAMG:  Solving for p, Initial residual = 0.045899, Final residual = 7.70591e-08, No Iterations 16
time step continuity errors : sum local = 1.15362e-10, global = 2.18423e-11, cumulative = 1.7772e-09
smoothSolver:  Solving for epsilon, Initial residual = 0.00479697, Final residual = 5.10574e-06, No Iterations 6
smoothSolver:  Solving for k, Initial residual = 0.00838502, Final residual = 5.80356e-06, No Iterations 7
ExecutionTime = 7.85519 s  ClockTime = 13 s

Courant Number mean: 1.04252 max: 4.90053
deltaT = 0.000222447
Time = 0.0111021s

smoothSolver:  Solving for Ux, Initial residual = 0.00524721, Final residual = 9.68985e-06, No Iterations 7
smoothSolver:  Solving for Uy, Initial residual = 0.0102074, Final residual = 7.63834e-06, No Iterations 8
GAMG:  Solving for p, Initial residual = 0.0607475, Final residual = 0.000309775, No Iterations 6
time step continuity errors : sum local = 4.63101e-07, global = 1.81045e-08
GAMG:  Solving for p, Initial residual = 0.0442729, Final residual = 6.15033e-08, No Iterations 17
time step continuity errors : sum local = 9.16088e-11, global = 2.07177e-11, cumulative = 1.79791e-09
smoothSolver:  Solving for epsilon, Initial residual = 0.00468438, Final residual = 4.88815e-06, No Iterations 6
smoothSolver:  Solving for k, Initial residual = 0.00817075, Final residual = 5.51478e-06, No Iterations 7
ExecutionTime = 7.96192 s  ClockTime = 14 s

Courant Number mean: 1.04385 max: 4.86731
deltaT = 0.000228151
Time = 0.0113303s

smoothSolver:  Solving for Ux, Initial residual = 0.00528544, Final residual = 5.1202e-06, No Iterations 8
smoothSolver:  Solving for Uy, Initial residual = 0.0102595, Final residual = 8.39962e-06, No Iterations 8
GAMG:  Solving for p, Initial residual = 0.0682842, Final residual = 0.000657132, No Iterations 5
time step continuity errors : sum local = 1.01108e-06, global = 1.74461e-08
GAMG:  Solving for p, Initial residual = 0.0459906, Final residual = 7.33168e-08, No Iterations 17
time step continuity errors : sum local = 1.12637e-10, global = 3.06528e-11, cumulative = 1.82857e-09
smoothSolver:  Solving for epsilon, Initial residual = 0.00472097, Final residual = 5.29207e-06, No Iterations 6
smoothSolver:  Solving for k, Initial residual = 0.00817467, Final residual = 5.96888e-06, No Iterations 7
ExecutionTime = 8.06797 s  ClockTime = 14 s

Courant Number mean: 1.07201 max: 4.95663
deltaT = 0.000228151
Time = 0.0115584s

smoothSolver:  Solving for Ux, Initial residual = 0.00519629, Final residual = 9.98411e-06, No Iterations 7
smoothSolver:  Solving for Uy, Initial residual = 0.010068, Final residual = 8.01321e-06, No Iterations 8
GAMG:  Solving for p, Initial residual = 0.0655913, Final residual = 0.000651687, No Iterations 5
time step continuity errors : sum local = 9.99308e-07, global = 1.69412e-08
GAMG:  Solving for p, Initial residual = 0.044568, Final residual = 8.40866e-08, No Iterations 18
time step continuity errors : sum local = 1.28306e-10, global = 2.34657e-11, cumulative = 1.85203e-09
smoothSolver:  Solving for epsilon, Initial residual = 0.00457517, Final residual = 5.07766e-06, No Iterations 6
smoothSolver:  Solving for k, Initial residual = 0.00796433, Final residual = 5.67411e-06, No Iterations 7
ExecutionTime = 8.17886 s  ClockTime = 14 s

Courant Number mean: 1.07337 max: 4.91853
deltaT = 0.000228151
Time = 0.0117866s

smoothSolver:  Solving for Ux, Initial residual = 0.00508013, Final residual = 9.50521e-06, No Iterations 7
smoothSolver:  Solving for Uy, Initial residual = 0.0098496, Final residual = 7.63564e-06, No Iterations 8
GAMG:  Solving for p, Initial residual = 0.0595113, Final residual = 0.000594093, No Iterations 5
time step continuity errors : sum local = 9.04071e-07, global = 1.34897e-08
GAMG:  Solving for p, Initial residual = 0.0423076, Final residual = 9.90444e-08, No Iterations 15
time step continuity errors : sum local = 1.50555e-10, global = -1.73305e-11, cumulative = 1.8347e-09
smoothSolver:  Solving for epsilon, Initial residual = 0.00449241, Final residual = 4.8717e-06, No Iterations 6
smoothSolver:  Solving for k, Initial residual = 0.00776503, Final residual = 5.39768e-06, No Iterations 7
ExecutionTime = 8.26437 s  ClockTime = 14 s

Courant Number mean: 1.07473 max: 4.88937
deltaT = 0.000228151
Time = 0.0120147s

smoothSolver:  Solving for Ux, Initial residual = 0.00500139, Final residual = 9.09232e-06, No Iterations 7
smoothSolver:  Solving for Uy, Initial residual = 0.00964758, Final residual = 7.27357e-06, No Iterations 8
GAMG:  Solving for p, Initial residual = 0.0590769, Final residual = 0.000289584, No Iterations 6
time step continuity errors : sum local = 4.39345e-07, global = 1.70485e-08
GAMG:  Solving for p, Initial residual = 0.0413068, Final residual = 6.69125e-08, No Iterations 17
time step continuity errors : sum local = 1.01101e-10, global = 1.63636e-11, cumulative = 1.85106e-09
smoothSolver:  Solving for epsilon, Initial residual = 0.00435614, Final residual = 4.69853e-06, No Iterations 6
smoothSolver:  Solving for k, Initial residual = 0.00757069, Final residual = 5.14128e-06, No Iterations 7
ExecutionTime = 8.37211 s  ClockTime = 14 s

Courant Number mean: 1.07607 max: 4.85585
deltaT = 0.000234861
Time = 0.0122496s

smoothSolver:  Solving for Ux, Initial residual = 0.00505755, Final residual = 4.88296e-06, No Iterations 8
smoothSolver:  Solving for Uy, Initial residual = 0.00973203, Final residual = 8.19483e-06, No Iterations 8
GAMG:  Solving for p, Initial residual = 0.0654587, Final residual = 0.000612866, No Iterations 5
time step continuity errors : sum local = 9.59868e-07, global = 1.18253e-08
GAMG:  Solving for p, Initial residual = 0.0429183, Final residual = 7.83531e-08, No Iterations 16
time step continuity errors : sum local = 1.22684e-10, global = 3.18428e-11, cumulative = 1.88291e-09
smoothSolver:  Solving for epsilon, Initial residual = 0.00440198, Final residual = 5.19533e-06, No Iterations 6
smoothSolver:  Solving for k, Initial residual = 0.00761191, Final residual = 5.68535e-06, No Iterations 7
ExecutionTime = 8.46913 s  ClockTime = 14 s

Courant Number mean: 1.10911 max: 4.96643
deltaT = 0.000234861
Time = 0.0124844s

smoothSolver:  Solving for Ux, Initial residual = 0.00498856, Final residual = 9.59948e-06, No Iterations 7
smoothSolver:  Solving for Uy, Initial residual = 0.00956528, Final residual = 7.84199e-06, No Iterations 8
GAMG:  Solving for p, Initial residual = 0.0630267, Final residual = 0.00062876, No Iterations 5
time step continuity errors : sum local = 9.81546e-07, global = 1.65042e-08
GAMG:  Solving for p, Initial residual = 0.0418739, Final residual = 8.11175e-08, No Iterations 18
time step continuity errors : sum local = 1.26032e-10, global = 2.36963e-11, cumulative = 1.9066e-09
smoothSolver:  Solving for epsilon, Initial residual = 0.0043117, Final residual = 4.99911e-06, No Iterations 6
smoothSolver:  Solving for k, Initial residual = 0.00742797, Final residual = 5.42073e-06, No Iterations 7
ExecutionTime = 8.57849 s  ClockTime = 14 s

Courant Number mean: 1.11047 max: 4.93584
deltaT = 0.000234861
Time = 0.0127193s

smoothSolver:  Solving for Ux, Initial residual = 0.00488424, Final residual = 9.14912e-06, No Iterations 7
smoothSolver:  Solving for Uy, Initial residual = 0.00937564, Final residual = 7.50043e-06, No Iterations 8
GAMG:  Solving for p, Initial residual = 0.0587696, Final residual = 0.000549062, No Iterations 5
time step continuity errors : sum local = 8.50727e-07, global = 1.59113e-09
GAMG:  Solving for p, Initial residual = 0.039928, Final residual = 4.23905e-08, No Iterations 16
time step continuity errors : sum local = 6.57439e-11, global = 1.34905e-11, cumulative = 1.92009e-09
smoothSolver:  Solving for epsilon, Initial residual = 0.00420208, Final residual = 4.83937e-06, No Iterations 6
smoothSolver:  Solving for k, Initial residual = 0.0072679, Final residual = 5.17782e-06, No Iterations 7
ExecutionTime = 8.71814 s  ClockTime = 14 s

Courant Number mean: 1.1118 max: 4.90244
deltaT = 0.000234861
Time = 0.0129542s

smoothSolver:  Solving for Ux, Initial residual = 0.00482726, Final residual = 8.79167e-06, No Iterations 7
smoothSolver:  Solving for Uy, Initial residual = 0.00921192, Final residual = 7.17136e-06, No Iterations 8
GAMG:  Solving for p, Initial residual = 0.0616673, Final residual = 0.000592079, No Iterations 5
time step continuity errors : sum local = 9.15221e-07, global = 2.28673e-08
GAMG:  Solving for p, Initial residual = 0.0400489, Final residual = 7.31168e-08, No Iterations 18
time step continuity errors : sum local = 1.12749e-10, global = 2.26774e-11, cumulative = 1.94277e-09
smoothSolver:  Solving for epsilon, Initial residual = 0.00411814, Final residual = 4.6761e-06, No Iterations 6
smoothSolver:  Solving for k, Initial residual = 0.0071284, Final residual = 4.95679e-06, No Iterations 7
ExecutionTime = 8.82857 s  ClockTime = 14 s

Courant Number mean: 1.11312 max: 4.87628
deltaT = 0.000234861
Time = 0.013189s

smoothSolver:  Solving for Ux, Initial residual = 0.00474695, Final residual = 8.39922e-06, No Iterations 7
smoothSolver:  Solving for Uy, Initial residual = 0.00905667, Final residual = 6.86515e-06, No Iterations 8
GAMG:  Solving for p, Initial residual = 0.0591796, Final residual = 0.000527064, No Iterations 5
time step continuity errors : sum local = 8.09522e-07, global = -6.9722e-09
GAMG:  Solving for p, Initial residual = 0.038501, Final residual = 3.60535e-08, No Iterations 16
time step continuity errors : sum local = 5.53447e-11, global = 5.87501e-12, cumulative = 1.94865e-09
smoothSolver:  Solving for epsilon, Initial residual = 0.00403626, Final residual = 4.5314e-06, No Iterations 6
smoothSolver:  Solving for k, Initial residual = 0.00699721, Final residual = 4.75753e-06, No Iterations 7
ExecutionTime = 8.94232 s  ClockTime = 14 s

Courant Number mean: 1.11441 max: 4.84461
deltaT = 0.000234861
Time = 0.0134239s

smoothSolver:  Solving for Ux, Initial residual = 0.00468034, Final residual = 8.08154e-06, No Iterations 7
smoothSolver:  Solving for Uy, Initial residual = 0.00890488, Final residual = 6.59855e-06, No Iterations 8
GAMG:  Solving for p, Initial residual = 0.055827, Final residual = 0.000553848, No Iterations 5
time step continuity errors : sum local = 8.49481e-07, global = 2.24033e-08
GAMG:  Solving for p, Initial residual = 0.0373734, Final residual = 6.15377e-08, No Iterations 18
time step continuity errors : sum local = 9.42292e-11, global = 2.17908e-11, cumulative = 1.97044e-09
smoothSolver:  Solving for epsilon, Initial residual = 0.00392765, Final residual = 4.40124e-06, No Iterations 6
smoothSolver:  Solving for k, Initial residual = 0.00687083, Final residual = 4.58412e-06, No Iterations 7
ExecutionTime = 9.05022 s  ClockTime = 15 s

Courant Number mean: 1.11567 max: 4.81987
deltaT = 0.00024356
Time = 0.0136675s

smoothSolver:  Solving for Ux, Initial residual = 0.00477866, Final residual = 9.29075e-06, No Iterations 7
smoothSolver:  Solving for Uy, Initial residual = 0.00909564, Final residual = 7.82077e-06, No Iterations 8
GAMG:  Solving for p, Initial residual = 0.0619993, Final residual = 0.000530736, No Iterations 5
time step continuity errors : sum local = 8.48089e-07, global = -1.04141e-08
GAMG:  Solving for p, Initial residual = 0.0391, Final residual = 8.16892e-08, No Iterations 15
time step continuity errors : sum local = 1.30622e-10, global = -1.08423e-11, cumulative = 1.9596e-09
smoothSolver:  Solving for epsilon, Initial residual = 0.00403371, Final residual = 5.08376e-06, No Iterations 6
smoothSolver:  Solving for k, Initial residual = 0.00700905, Final residual = 5.34347e-06, No Iterations 7
ExecutionTime = 9.16077 s  ClockTime = 15 s

Courant Number mean: 1.15834 max: 4.96749
deltaT = 0.00024356
Time = 0.013911s

smoothSolver:  Solving for Ux, Initial residual = 0.00473429, Final residual = 8.97172e-06, No Iterations 7
smoothSolver:  Solving for Uy, Initial residual = 0.00895437, Final residual = 7.51585e-06, No Iterations 8
GAMG:  Solving for p, Initial residual = 0.0565235, Final residual = 0.000564627, No Iterations 5
time step continuity errors : sum local = 9.01437e-07, global = 2.72432e-08
GAMG:  Solving for p, Initial residual = 0.037911, Final residual = 8.54989e-08, No Iterations 17
time step continuity errors : sum local = 1.36166e-10, global = -2.48814e-11, cumulative = 1.93471e-09
smoothSolver:  Solving for epsilon, Initial residual = 0.0039535, Final residual = 4.92861e-06, No Iterations 6
smoothSolver:  Solving for k, Initial residual = 0.00688833, Final residual = 5.16698e-06, No Iterations 7
ExecutionTime = 9.26958 s  ClockTime = 15 s

Courant Number mean: 1.15966 max: 4.94028
deltaT = 0.00024356
Time = 0.0141546s

smoothSolver:  Solving for Ux, Initial residual = 0.0046597, Final residual = 8.59873e-06, No Iterations 7
smoothSolver:  Solving for Uy, Initial residual = 0.00883642, Final residual = 7.23117e-06, No Iterations 8
GAMG:  Solving for p, Initial residual = 0.0613855, Final residual = 0.000507121, No Iterations 5
time step continuity errors : sum local = 8.05219e-07, global = -1.62435e-08
GAMG:  Solving for p, Initial residual = 0.037886, Final residual = 4.86119e-08, No Iterations 15
time step continuity errors : sum local = 7.72745e-11, global = 2.18334e-12, cumulative = 1.9369e-09
smoothSolver:  Solving for epsilon, Initial residual = 0.00386993, Final residual = 4.7992e-06, No Iterations 6
smoothSolver:  Solving for k, Initial residual = 0.00678305, Final residual = 5.01271e-06, No Iterations 7
ExecutionTime = 9.36718 s  ClockTime = 15 s

Courant Number mean: 1.16095 max: 4.91246
deltaT = 0.00024356
Time = 0.0143981s

smoothSolver:  Solving for Ux, Initial residual = 0.00460888, Final residual = 8.30829e-06, No Iterations 7
smoothSolver:  Solving for Uy, Initial residual = 0.00871594, Final residual = 6.9848e-06, No Iterations 8
GAMG:  Solving for p, Initial residual = 0.0553382, Final residual = 0.000533885, No Iterations 5
time step continuity errors : sum local = 8.47625e-07, global = 2.85508e-08
GAMG:  Solving for p, Initial residual = 0.0365031, Final residual = 7.44394e-08, No Iterations 17
time step continuity errors : sum local = 1.17832e-10, global = -1.95982e-11, cumulative = 1.9173e-09
[...]
GAMG:  Solving for p, Initial residual = 0.000904829, Final residual = 7.64651e-08, No Iterations 14
time step continuity errors : sum local = 6.40648e-11, global = -8.56537e-12, cumulative = 2.92938e-09
smoothSolver:  Solving for epsilon, Initial residual = 0.000178276, Final residual = 4.43883e-06, No Iterations 3
smoothSolver:  Solving for k, Initial residual = 0.000255456, Final residual = 4.95762e-06, No Iterations 4
ExecutionTime = 65.3727 s  ClockTime = 72 s

Courant Number mean: 1.1279 max: 4.92231
deltaT = 0.00025
Time = 0.12725s

smoothSolver:  Solving for Ux, Initial residual = 0.000106684, Final residual = 8.8908e-06, No Iterations 2
smoothSolver:  Solving for Uy, Initial residual = 0.000238132, Final residual = 7.41628e-06, No Iterations 3
GAMG:  Solving for p, Initial residual = 0.00196854, Final residual = 9.87562e-06, No Iterations 5
time step continuity errors : sum local = 8.25052e-09, global = 1.86454e-09
GAMG:  Solving for p, Initial residual = 0.000574967, Final residual = 6.94487e-08, No Iterations 14
time step continuity errors : sum local = 5.8136e-11, global = -6.61866e-12, cumulative = 2.92276e-09
smoothSolver:  Solving for epsilon, Initial residual = 0.000175635, Final residual = 4.36939e-06, No Iterations 3
smoothSolver:  Solving for k, Initial residual = 0.000250332, Final residual = 4.85957e-06, No Iterations 4
ExecutionTime = 65.4586 s  ClockTime = 72 s

Courant Number mean: 1.12789 max: 4.92231
deltaT = 0.00025
Time = 0.1275s

smoothSolver:  Solving for Ux, Initial residual = 0.000104787, Final residual = 8.71913e-06, No Iterations 2
smoothSolver:  Solving for Uy, Initial residual = 0.00023957, Final residual = 7.34672e-06, No Iterations 3
GAMG:  Solving for p, Initial residual = 0.00289672, Final residual = 2.50476e-05, No Iterations 4
time step continuity errors : sum local = 2.09274e-08, global = -2.71638e-09
GAMG:  Solving for p, Initial residual = 0.000717411, Final residual = 7.83144e-08, No Iterations 14
time step continuity errors : sum local = 6.55974e-11, global = -8.30207e-12, cumulative = 2.91446e-09
smoothSolver:  Solving for epsilon, Initial residual = 0.000172487, Final residual = 4.3016e-06, No Iterations 3
smoothSolver:  Solving for k, Initial residual = 0.000245191, Final residual = 4.76346e-06, No Iterations 4
ExecutionTime = 65.5364 s  ClockTime = 72 s

Courant Number mean: 1.12788 max: 4.92232
deltaT = 0.00025
Time = 0.12775s

smoothSolver:  Solving for Ux, Initial residual = 0.000102786, Final residual = 8.571e-06, No Iterations 2
smoothSolver:  Solving for Uy, Initial residual = 0.000228677, Final residual = 7.22321e-06, No Iterations 3
GAMG:  Solving for p, Initial residual = 0.00236824, Final residual = 2.15879e-05, No Iterations 4
time step continuity errors : sum local = 1.80331e-08, global = -2.2662e-09
GAMG:  Solving for p, Initial residual = 0.000585104, Final residual = 6.865e-08, No Iterations 14
time step continuity errors : sum local = 5.74624e-11, global = -6.87934e-12, cumulative = 2.90758e-09
smoothSolver:  Solving for epsilon, Initial residual = 0.000169713, Final residual = 4.23513e-06, No Iterations 3
smoothSolver:  Solving for k, Initial residual = 0.000240292, Final residual = 4.66925e-06, No Iterations 4
ExecutionTime = 65.6105 s  ClockTime = 72 s

Courant Number mean: 1.12786 max: 4.92232
deltaT = 0.00025
Time = 0.128s

smoothSolver:  Solving for Ux, Initial residual = 0.000100768, Final residual = 8.41262e-06, No Iterations 2
smoothSolver:  Solving for Uy, Initial residual = 0.000227106, Final residual = 7.14166e-06, No Iterations 3
GAMG:  Solving for p, Initial residual = 0.00207945, Final residual = 1.66586e-05, No Iterations 4
time step continuity errors : sum local = 1.39146e-08, global = -1.84868e-09
GAMG:  Solving for p, Initial residual = 0.000490778, Final residual = 7.05894e-08, No Iterations 14
time step continuity errors : sum local = 5.91013e-11, global = -6.80562e-12, cumulative = 2.90077e-09
smoothSolver:  Solving for epsilon, Initial residual = 0.000166727, Final residual = 4.17043e-06, No Iterations 3
smoothSolver:  Solving for k, Initial residual = 0.000235463, Final residual = 4.57703e-06, No Iterations 4
ExecutionTime = 65.6916 s  ClockTime = 72 s

Courant Number mean: 1.12785 max: 4.92233
deltaT = 0.00025
Time = 0.12825s

smoothSolver:  Solving for Ux, Initial residual = 9.89021e-05, Final residual = 8.25264e-06, No Iterations 2
smoothSolver:  Solving for Uy, Initial residual = 0.000221418, Final residual = 7.04525e-06, No Iterations 3
GAMG:  Solving for p, Initial residual = 0.00230262, Final residual = 2.10741e-05, No Iterations 4
time step continuity errors : sum local = 1.76034e-08, global = -2.24086e-09
GAMG:  Solving for p, Initial residual = 0.000521065, Final residual = 6.59142e-08, No Iterations 14
time step continuity errors : sum local = 5.51762e-11, global = -6.26395e-12, cumulative = 2.89451e-09
smoothSolver:  Solving for epsilon, Initial residual = 0.000164411, Final residual = 4.10744e-06, No Iterations 3
smoothSolver:  Solving for k, Initial residual = 0.000230815, Final residual = 4.48688e-06, No Iterations 4
ExecutionTime = 65.7703 s  ClockTime = 72 s

Courant Number mean: 1.12784 max: 4.92233
deltaT = 0.00025
Time = 0.1285s

smoothSolver:  Solving for Ux, Initial residual = 9.71811e-05, Final residual = 8.10947e-06, No Iterations 2
smoothSolver:  Solving for Uy, Initial residual = 0.000220493, Final residual = 6.96276e-06, No Iterations 3
GAMG:  Solving for p, Initial residual = 0.00314301, Final residual = 2.41293e-05, No Iterations 4
time step continuity errors : sum local = 2.01607e-08, global = -2.42921e-09
GAMG:  Solving for p, Initial residual = 0.000725884, Final residual = 7.21872e-08, No Iterations 14
time step continuity errors : sum local = 6.04576e-11, global = -8.14658e-12, cumulative = 2.88636e-09
smoothSolver:  Solving for epsilon, Initial residual = 0.000161355, Final residual = 4.04565e-06, No Iterations 3
smoothSolver:  Solving for k, Initial residual = 0.000226104, Final residual = 4.39875e-06, No Iterations 4
ExecutionTime = 65.8438 s  ClockTime = 72 s

Courant Number mean: 1.12782 max: 4.92234
deltaT = 0.00025
Time = 0.12875s

smoothSolver:  Solving for Ux, Initial residual = 9.53672e-05, Final residual = 7.96844e-06, No Iterations 2
smoothSolver:  Solving for Uy, Initial residual = 0.000212991, Final residual = 6.86825e-06, No Iterations 3
GAMG:  Solving for p, Initial residual = 0.0024623, Final residual = 1.78802e-05, No Iterations 4
time step continuity errors : sum local = 1.4936e-08, global = -1.86521e-09
GAMG:  Solving for p, Initial residual = 0.000646331, Final residual = 6.63338e-08, No Iterations 14
time step continuity errors : sum local = 5.5503e-11, global = -6.75491e-12, cumulative = 2.87961e-09
smoothSolver:  Solving for epsilon, Initial residual = 0.000158742, Final residual = 3.98551e-06, No Iterations 3
smoothSolver:  Solving for k, Initial residual = 0.000221697, Final residual = 4.31267e-06, No Iterations 4
ExecutionTime = 65.9174 s  ClockTime = 72 s

Courant Number mean: 1.12781 max: 4.92234
deltaT = 0.00025
Time = 0.129s

smoothSolver:  Solving for Ux, Initial residual = 9.34352e-05, Final residual = 7.813e-06, No Iterations 2
smoothSolver:  Solving for Uy, Initial residual = 0.000210596, Final residual = 6.80063e-06, No Iterations 3
GAMG:  Solving for p, Initial residual = 0.00196142, Final residual = 9.28132e-06, No Iterations 5
time step continuity errors : sum local = 7.75101e-09, global = 1.70374e-09
GAMG:  Solving for p, Initial residual = 0.000447153, Final residual = 6.1943e-08, No Iterations 14
time step continuity errors : sum local = 5.18445e-11, global = -5.68299e-12, cumulative = 2.87393e-09
smoothSolver:  Solving for epsilon, Initial residual = 0.000156141, Final residual = 3.92711e-06, No Iterations 3
smoothSolver:  Solving for k, Initial residual = 0.000217161, Final residual = 4.22872e-06, No Iterations 4
ExecutionTime = 65.9993 s  ClockTime = 72 s

Courant Number mean: 1.1278 max: 4.92235
deltaT = 0.00025
Time = 0.12925s

smoothSolver:  Solving for Ux, Initial residual = 9.18419e-05, Final residual = 7.67565e-06, No Iterations 2
smoothSolver:  Solving for Uy, Initial residual = 0.000207144, Final residual = 6.72e-06, No Iterations 3
GAMG:  Solving for p, Initial residual = 0.00251435, Final residual = 2.14013e-05, No Iterations 4
time step continuity errors : sum local = 1.78732e-08, global = -2.33802e-09
GAMG:  Solving for p, Initial residual = 0.000553358, Final residual = 6.6378e-08, No Iterations 14
time step continuity errors : sum local = 5.55455e-11, global = -6.62834e-12, cumulative = 2.8673e-09
smoothSolver:  Solving for epsilon, Initial residual = 0.000153521, Final residual = 3.86981e-06, No Iterations 3
smoothSolver:  Solving for k, Initial residual = 0.000212939, Final residual = 4.14679e-06, No Iterations 4
ExecutionTime = 66.0767 s  ClockTime = 73 s

Courant Number mean: 1.12779 max: 4.92235
deltaT = 0.00025
Time = 0.1295s

smoothSolver:  Solving for Ux, Initial residual = 9.00624e-05, Final residual = 7.53823e-06, No Iterations 2
smoothSolver:  Solving for Uy, Initial residual = 0.000199476, Final residual = 6.63022e-06, No Iterations 3
GAMG:  Solving for p, Initial residual = 0.00205479, Final residual = 2.01788e-05, No Iterations 4
time step continuity errors : sum local = 1.68503e-08, global = -2.07063e-09
GAMG:  Solving for p, Initial residual = 0.000545437, Final residual = 6.24113e-08, No Iterations 14
time step continuity errors : sum local = 5.22101e-11, global = -6.30281e-12, cumulative = 2.86099e-09
smoothSolver:  Solving for epsilon, Initial residual = 0.000151739, Final residual = 3.8143e-06, No Iterations 3
smoothSolver:  Solving for k, Initial residual = 0.000209173, Final residual = 9.99636e-06, No Iterations 3
ExecutionTime = 66.1594 s  ClockTime = 73 s

Courant Number mean: 1.12778 max: 4.92236
deltaT = 0.00025
Time = 0.12975s

smoothSolver:  Solving for Ux, Initial residual = 8.85427e-05, Final residual = 7.40011e-06, No Iterations 2
smoothSolver:  Solving for Uy, Initial residual = 0.000205365, Final residual = 6.55868e-06, No Iterations 3
GAMG:  Solving for p, Initial residual = 0.00301763, Final residual = 2.07985e-05, No Iterations 4
time step continuity errors : sum local = 1.73764e-08, global = -2.11294e-09
GAMG:  Solving for p, Initial residual = 0.000665177, Final residual = 6.69593e-08, No Iterations 14
time step continuity errors : sum local = 5.60697e-11, global = -7.42313e-12, cumulative = 2.85357e-09
smoothSolver:  Solving for epsilon, Initial residual = 0.00014868, Final residual = 3.75073e-06, No Iterations 3
smoothSolver:  Solving for k, Initial residual = 0.000204637, Final residual = 9.80518e-06, No Iterations 3
ExecutionTime = 66.2408 s  ClockTime = 73 s

Courant Number mean: 1.12776 max: 4.92236
deltaT = 0.00025
Time = 0.13s

smoothSolver:  Solving for Ux, Initial residual = 8.70616e-05, Final residual = 7.26972e-06, No Iterations 2
smoothSolver:  Solving for Uy, Initial residual = 0.000199381, Final residual = 6.47767e-06, No Iterations 3
GAMG:  Solving for p, Initial residual = 0.00343136, Final residual = 2.88843e-05, No Iterations 3
time step continuity errors : sum local = 2.4129e-08, global = 5.61995e-09
GAMG:  Solving for p, Initial residual = 0.000682319, Final residual = 6.06307e-08, No Iterations 13
time step continuity errors : sum local = 5.07089e-11, global = 1.312e-11, cumulative = 2.86669e-09
smoothSolver:  Solving for epsilon, Initial residual = 0.00014593, Final residual = 3.68968e-06, No Iterations 3
smoothSolver:  Solving for k, Initial residual = 0.000200672, Final residual = 9.61991e-06, No Iterations 3
ExecutionTime = 66.369 s  ClockTime = 73 s

Courant Number mean: 1.12775 max: 4.92237
deltaT = 0.00025
Time = 0.13025s

smoothSolver:  Solving for Ux, Initial residual = 8.5409e-05, Final residual = 7.17365e-06, No Iterations 2
smoothSolver:  Solving for Uy, Initial residual = 0.000190277, Final residual = 6.4103e-06, No Iterations 3
GAMG:  Solving for p, Initial residual = 0.00202212, Final residual = 1.75367e-05, No Iterations 3
time step continuity errors : sum local = 1.46438e-08, global = 2.92897e-09
GAMG:  Solving for p, Initial residual = 0.000478338, Final residual = 8.90991e-08, No Iterations 13
time step continuity errors : sum local = 7.44948e-11, global = 1.85922e-11, cumulative = 2.88528e-09
smoothSolver:  Solving for epsilon, Initial residual = 0.000143408, Final residual = 3.63106e-06, No Iterations 3
smoothSolver:  Solving for k, Initial residual = 0.000196871, Final residual = 9.4403e-06, No Iterations 3
ExecutionTime = 66.4373 s  ClockTime = 73 s

Courant Number mean: 1.12774 max: 4.92237
deltaT = 0.00025
Time = 0.1305s

smoothSolver:  Solving for Ux, Initial residual = 8.37602e-05, Final residual = 7.01887e-06, No Iterations 2
smoothSolver:  Solving for Uy, Initial residual = 0.000190107, Final residual = 6.34834e-06, No Iterations 3
GAMG:  Solving for p, Initial residual = 0.0015745, Final residual = 1.34873e-05, No Iterations 3
time step continuity errors : sum local = 1.1261e-08, global = 6.46803e-10
GAMG:  Solving for p, Initial residual = 0.000363136, Final residual = 8.37183e-08, No Iterations 13
time step continuity errors : sum local = 7.00123e-11, global = 1.82356e-11, cumulative = 2.90352e-09
smoothSolver:  Solving for epsilon, Initial residual = 0.000141612, Final residual = 3.57498e-06, No Iterations 3
smoothSolver:  Solving for k, Initial residual = 0.000193216, Final residual = 9.26631e-06, No Iterations 3
ExecutionTime = 66.5095 s  ClockTime = 73 s

Courant Number mean: 1.12773 max: 4.92238
deltaT = 0.00025
Time = 0.13075s

smoothSolver:  Solving for Ux, Initial residual = 8.24597e-05, Final residual = 6.88703e-06, No Iterations 2
smoothSolver:  Solving for Uy, Initial residual = 0.000194091, Final residual = 6.27576e-06, No Iterations 3
GAMG:  Solving for p, Initial residual = 0.0032682, Final residual = 2.68071e-05, No Iterations 3
time step continuity errors : sum local = 2.23909e-08, global = 4.70277e-09
GAMG:  Solving for p, Initial residual = 0.00057804, Final residual = 7.24665e-08, No Iterations 13
time step continuity errors : sum local = 6.06345e-11, global = 1.53594e-11, cumulative = 2.91888e-09
smoothSolver:  Solving for epsilon, Initial residual = 0.000138852, Final residual = 3.5212e-06, No Iterations 3
smoothSolver:  Solving for k, Initial residual = 0.000189342, Final residual = 9.09802e-06, No Iterations 3
ExecutionTime = 66.5893 s  ClockTime = 73 s

Courant Number mean: 1.12772 max: 4.92238
deltaT = 0.00025
Time = 0.131s

smoothSolver:  Solving for Ux, Initial residual = 8.10124e-05, Final residual = 6.79042e-06, No Iterations 2
smoothSolver:  Solving for Uy, Initial residual = 0.000187499, Final residual = 6.21706e-06, No Iterations 3
GAMG:  Solving for p, Initial residual = 0.00293707, Final residual = 2.36605e-05, No Iterations 3
time step continuity errors : sum local = 1.97656e-08, global = 4.6845e-09
GAMG:  Solving for p, Initial residual = 0.000533833, Final residual = 6.06418e-08, No Iterations 12
time step continuity errors : sum local = 5.0714e-11, global = -5.53061e-12, cumulative = 2.91335e-09
smoothSolver:  Solving for epsilon, Initial residual = 0.000136601, Final residual = 3.46921e-06, No Iterations 3
smoothSolver:  Solving for k, Initial residual = 0.000185939, Final residual = 8.93507e-06, No Iterations 3
ExecutionTime = 66.6565 s  ClockTime = 74 s

Courant Number mean: 1.12771 max: 4.92239
deltaT = 0.00025
Time = 0.13125s

smoothSolver:  Solving for Ux, Initial residual = 7.95706e-05, Final residual = 6.66673e-06, No Iterations 2
smoothSolver:  Solving for Uy, Initial residual = 0.000181912, Final residual = 6.17139e-06, No Iterations 3
GAMG:  Solving for p, Initial residual = 0.002518, Final residual = 2.45588e-05, No Iterations 3
time step continuity errors : sum local = 2.05117e-08, global = 4.36655e-09
GAMG:  Solving for p, Initial residual = 0.000488685, Final residual = 7.17174e-08, No Iterations 13
time step continuity errors : sum local = 5.99536e-11, global = 1.49386e-11, cumulative = 2.92829e-09
smoothSolver:  Solving for epsilon, Initial residual = 0.000134456, Final residual = 3.41958e-06, No Iterations 3
smoothSolver:  Solving for k, Initial residual = 0.00018246, Final residual = 8.7774e-06, No Iterations 3
ExecutionTime = 66.7321 s  ClockTime = 74 s

Courant Number mean: 1.1277 max: 4.92239
deltaT = 0.00025
Time = 0.1315s

smoothSolver:  Solving for Ux, Initial residual = 7.8204e-05, Final residual = 6.54788e-06, No Iterations 2
smoothSolver:  Solving for Uy, Initial residual = 0.00017913, Final residual = 6.09139e-06, No Iterations 3
GAMG:  Solving for p, Initial residual = 0.00237294, Final residual = 2.36831e-05, No Iterations 3
time step continuity errors : sum local = 1.9778e-08, global = 4.85608e-09
GAMG:  Solving for p, Initial residual = 0.000465097, Final residual = 9.8131e-08, No Iterations 12
time step continuity errors : sum local = 8.20517e-11, global = -1.18615e-11, cumulative = 2.91642e-09
smoothSolver:  Solving for epsilon, Initial residual = 0.000132415, Final residual = 3.37163e-06, No Iterations 3
smoothSolver:  Solving for k, Initial residual = 0.000179229, Final residual = 8.62491e-06, No Iterations 3
ExecutionTime = 66.8035 s  ClockTime = 74 s

Courant Number mean: 1.1277 max: 4.9224
deltaT = 0.00025
Time = 0.13175s

smoothSolver:  Solving for Ux, Initial residual = 7.67717e-05, Final residual = 6.43837e-06, No Iterations 2
smoothSolver:  Solving for Uy, Initial residual = 0.000179645, Final residual = 6.05459e-06, No Iterations 3
GAMG:  Solving for p, Initial residual = 0.00260349, Final residual = 2.45732e-05, No Iterations 3
time step continuity errors : sum local = 2.053e-08, global = 4.82621e-09
GAMG:  Solving for p, Initial residual = 0.000474214, Final residual = 6.41273e-08, No Iterations 13
time step continuity errors : sum local = 5.36448e-11, global = 1.36021e-11, cumulative = 2.93003e-09
smoothSolver:  Solving for epsilon, Initial residual = 0.000130203, Final residual = 3.3256e-06, No Iterations 3
smoothSolver:  Solving for k, Initial residual = 0.000175929, Final residual = 8.47746e-06, No Iterations 3
ExecutionTime = 66.8823 s  ClockTime = 74 s

Courant Number mean: 1.12769 max: 4.9224
deltaT = 0.00025
Time = 0.132s

smoothSolver:  Solving for Ux, Initial residual = 7.55706e-05, Final residual = 6.32052e-06, No Iterations 2
smoothSolver:  Solving for Uy, Initial residual = 0.000171097, Final residual = 6.003e-06, No Iterations 3
GAMG:  Solving for p, Initial residual = 0.00232089, Final residual = 2.18739e-05, No Iterations 3
time step continuity errors : sum local = 1.82708e-08, global = 4.25945e-09
GAMG:  Solving for p, Initial residual = 0.000536914, Final residual = 7.67369e-08, No Iterations 12
time step continuity errors : sum local = 6.41298e-11, global = -8.12567e-12, cumulative = 2.9219e-09
smoothSolver:  Solving for epsilon, Initial residual = 0.000128251, Final residual = 3.28147e-06, No Iterations 3
smoothSolver:  Solving for k, Initial residual = 0.000172737, Final residual = 8.33496e-06, No Iterations 3
ExecutionTime = 66.9501 s  ClockTime = 74 s

Courant Number mean: 1.12768 max: 4.92241
deltaT = 0.00025
Time = 0.13225s

smoothSolver:  Solving for Ux, Initial residual = 7.42258e-05, Final residual = 6.2143e-06, No Iterations 2
smoothSolver:  Solving for Uy, Initial residual = 0.000167938, Final residual = 5.93206e-06, No Iterations 3
GAMG:  Solving for p, Initial residual = 0.00161765, Final residual = 1.06509e-05, No Iterations 4
time step continuity errors : sum local = 8.8916e-09, global = -1.14091e-09
GAMG:  Solving for p, Initial residual = 0.000475593, Final residual = 9.61922e-08, No Iterations 13
time step continuity errors : sum local = 8.04208e-11, global = 1.93199e-11, cumulative = 2.94122e-09
smoothSolver:  Solving for epsilon, Initial residual = 0.000126442, Final residual = 9.92967e-06, No Iterations 2
