/*---------------------------------------------------------------------------*\
  =========                 |
  \\      /  F ield         | OpenFOAM: The Open Source CFD Toolbox
   \\    /   O peration     | Website:  https://openfoam.org
    \\  /    A nd           | Version:  12
     \\/     M anipulation  |
\*---------------------------------------------------------------------------*/
Build  : 12-cc05c1b03c38
Exec   : foamRun
Date   : Oct 15 2024
Time   : 06:02:20
Host   : "DESKTOP-KBPC6IC"
PID    : 244327
I/O    : uncollated
Case   : /home/as/openfoam/OpenFOAM-12/test/multiphaseEuler/populationBalance/coalescence
nProcs : 1
sigFpe : Enabling floating point exception trapping (FOAM_SIGFPE).
fileModificationChecking : Monitoring run-time modified files using timeStampMaster (fileModificationSkew 10)
allowSystemOperations : Allowing user-supplied system call operations

// * * * * * * * * * * * * * * * * * * * * * * * * * * * * * * * * * * * * * //
Create time

Create mesh for time = 0

Selecting solver multiphaseEuler
Selecting phaseSystem populationBalanceMultiphaseSystem
No MRF models present

Selecting phaseModel for air1: pureIsothermalPhaseModel
Selecting diameterModel for phase air1: velocityGroup
Selecting thermodynamics package 
{
    type            heRhoThermo;
    mixture         pureMixture;
    transport       const;
    thermo          hConst;
    equationOfState perfectGas;
    specie          specie;
    energy          sensibleInternalEnergy;
}

Calculating face flux field phi.air1
Selecting turbulence model type laminar
Selecting laminar stress model Stokes
Selecting phaseModel for air2: pureIsothermalPhaseModel
Selecting diameterModel for phase air2: velocityGroup
Selecting thermodynamics package 
{
    type            heRhoThermo;
    mixture         pureMixture;
    transport       const;
    thermo          hConst;
    equationOfState perfectGas;
    specie          specie;
    energy          sensibleInternalEnergy;
}

Calculating face flux field phi.air2
Selecting turbulence model type laminar
Selecting laminar stress model Stokes
Selecting phaseModel for air3: pureIsothermalPhaseModel
Selecting diameterModel for phase air3: velocityGroup
Selecting thermodynamics package 
{
    type            heRhoThermo;
    mixture         pureMixture;
    transport       const;
    thermo          hConst;
    equationOfState perfectGas;
    specie          specie;
    energy          sensibleInternalEnergy;
}

Calculating face flux field phi.air3
Selecting turbulence model type laminar
Selecting laminar stress model Stokes
Selecting phaseModel for water: pureIsothermalPhaseModel
Selecting diameterModel for phase water: none
Selecting thermodynamics package 
{
    type            heRhoThermo;
    mixture         pureMixture;
    transport       const;
    thermo          hConst;
    equationOfState rhoConst;
    specie          specie;
    energy          sensibleInternalEnergy;
}

Calculating face flux field phi.water
Selecting turbulence model type laminar
Selecting laminar stress model Stokes
Setting up population balance: bubbles
Selecting coalescence model for bubbles: constant
Courant Number mean: 0 max: 0

PIMPLE: No convergence criteria found


PIMPLE: Operating solver in transient mode with 1 outer corrector
PIMPLE: Operating solver in PISO mode



Starting time loop

    - selecting all cells
    - selected 1 cell(s) with volume 1
Courant Number mean: 0 max: 0
MULES: Solving for alpha.air1
MULES: Solving for alpha.air2
MULES: Solving for alpha.air3
MULES: Solving for alpha.water
air1 fraction, min, max = 0.0540848 0.0540848 0.0540848
air2 fraction, min, max = 0 0 0
air3 fraction, min, max = 0 0 0
water fraction, min, max = 0.945915 0.945915 0.945915
Phase-sum volume fraction, min, max = 1 1 1
populationBalance bubbles: Iteration 1
diagonal:  Solving for f0.air1, Initial residual = 0, Final residual = 0, No Iterations 0
diagonal:  Solving for f1.air1, Initial residual = 0, Final residual = 0, No Iterations 0
diagonal:  Solving for f2.air1, Initial residual = 0, Final residual = 0, No Iterations 0
diagonal:  Solving for f3.air1, Initial residual = 0, Final residual = 0, No Iterations 0
diagonal:  Solving for f4.air1, Initial residual = 0, Final residual = 0, No Iterations 0
diagonal:  Solving for f5.air1, Initial residual = 0, Final residual = 0, No Iterations 0
diagonal:  Solving for f6.air1, Initial residual = 0, Final residual = 0, No Iterations 0
diagonal:  Solving for f7.air1, Initial residual = 0, Final residual = 0, No Iterations 0
diagonal:  Solving for f8.air1, Initial residual = 0, Final residual = 0, No Iterations 0
diagonal:  Solving for f9.air1, Initial residual = 0, Final residual = 0, No Iterations 0
diagonal:  Solving for f10.air1, Initial residual = 0, Final residual = 0, No Iterations 0
diagonal:  Solving for f11.air1, Initial residual = 0, Final residual = 0, No Iterations 0
diagonal:  Solving for f12.air1, Initial residual = 0, Final residual = 0, No Iterations 0
diagonal:  Solving for f13.air1, Initial residual = 0, Final residual = 0, No Iterations 0
diagonal:  Solving for f14.air1, Initial residual = 0, Final residual = 0, No Iterations 0
diagonal:  Solving for f15.air1, Initial residual = 0, Final residual = 0, No Iterations 0
diagonal:  Solving for f16.air1, Initial residual = 0, Final residual = 0, No Iterations 0
diagonal:  Solving for f17.air1, Initial residual = 0, Final residual = 0, No Iterations 0
diagonal:  Solving for f18.air1, Initial residual = 0, Final residual = 0, No Iterations 0
diagonal:  Solving for f19.air1, Initial residual = 0, Final residual = 0, No Iterations 0
diagonal:  Solving for f20.air1, Initial residual = 0, Final residual = 0, No Iterations 0
diagonal:  Solving for f21.air1, Initial residual = 0, Final residual = 0, No Iterations 0
diagonal:  Solving for f22.air1, Initial residual = 0, Final residual = 0, No Iterations 0
diagonal:  Solving for f23.air1, Initial residual = 0, Final residual = 0, No Iterations 0
diagonal:  Solving for f24.air1, Initial residual = 0, Final residual = 0, No Iterations 0
diagonal:  Solving for f25.air1, Initial residual = 0, Final residual = 0, No Iterations 0
diagonal:  Solving for f26.air1, Initial residual = 0, Final residual = 0, No Iterations 0
diagonal:  Solving for f27.air1, Initial residual = 0, Final residual = 0, No Iterations 0
diagonal:  Solving for f28.air1, Initial residual = 0, Final residual = 0, No Iterations 0
diagonal:  Solving for f29.air1, Initial residual = 0, Final residual = 0, No Iterations 0
diagonal:  Solving for f30.air1, Initial residual = 0, Final residual = 0, No Iterations 0
diagonal:  Solving for f31.air1, Initial residual = 0, Final residual = 0, No Iterations 0
diagonal:  Solving for f32.air1, Initial residual = 0, Final residual = 0, No Iterations 0
diagonal:  Solving for f33.air1, Initial residual = 0, Final residual = 0, No Iterations 0
diagonal:  Solving for f34.air1, Initial residual = 0, Final residual = 0, No Iterations 0
diagonal:  Solving for f35.air1, Initial residual = 0, Final residual = 0, No Iterations 0
diagonal:  Solving for f36.air1, Initial residual = 0, Final residual = 0, No Iterations 0
diagonal:  Solving for f37.air1, Initial residual = 0, Final residual = 0, No Iterations 0
diagonal:  Solving for f38.air1, Initial residual = 0, Final residual = 0, No Iterations 0
diagonal:  Solving for f39.air1, Initial residual = 0, Final residual = 0, No Iterations 0
diagonal:  Solving for f40.air1, Initial residual = 0, Final residual = 0, No Iterations 0
diagonal:  Solving for f41.air1, Initial residual = 0, Final residual = 0, No Iterations 0
diagonal:  Solving for f42.air1, Initial residual = 0, Final residual = 0, No Iterations 0
diagonal:  Solving for f43.air1, Initial residual = 0, Final residual = 0, No Iterations 0
diagonal:  Solving for f44.air1, Initial residual = 0, Final residual = 0, No Iterations 0
diagonal:  Solving for f45.air1, Initial residual = 0, Final residual = 0, No Iterations 0
diagonal:  Solving for f46.air1, Initial residual = 0, Final residual = 0, No Iterations 0
diagonal:  Solving for f47.air2, Initial residual = 0, Final residual = 0, No Iterations 0
diagonal:  Solving for f48.air2, Initial residual = 0, Final residual = 0, No Iterations 0
diagonal:  Solving for f49.air2, Initial residual = 0, Final residual = 0, No Iterations 0
diagonal:  Solving for f50.air2, Initial residual = 0, Final residual = 0, No Iterations 0
diagonal:  Solving for f51.air2, Initial residual = 0, Final residual = 0, No Iterations 0
diagonal:  Solving for f52.air2, Initial residual = 0, Final residual = 0, No Iterations 0
diagonal:  Solving for f53.air2, Initial residual = 0, Final residual = 0, No Iterations 0
diagonal:  Solving for f54.air2, Initial residual = 0, Final residual = 0, No Iterations 0
diagonal:  Solving for f55.air2, Initial residual = 0, Final residual = 0, No Iterations 0
diagonal:  Solving for f56.air3, Initial residual = 0, Final residual = 0, No Iterations 0
diagonal:  Solving for f57.air3, Initial residual = 0, Final residual = 0, No Iterations 0
diagonal:  Solving for f58.air3, Initial residual = 0, Final residual = 0, No Iterations 0
diagonal:  Solving for f59.air3, Initial residual = 0, Final residual = 0, No Iterations 0
diagonal:  Solving for f60.air3, Initial residual = 0, Final residual = 0, No Iterations 0
diagonal:  Solving for f61.air3, Initial residual = 0, Final residual = 0, No Iterations 0
diagonal:  Solving for f62.air3, Initial residual = 0, Final residual = 0, No Iterations 0
diagonal:  Solving for f63.air3, Initial residual = 0, Final residual = 0, No Iterations 0
diagonal:  Solving for f64.air3, Initial residual = 0, Final residual = 0, No Iterations 0
diagonal:  Solving for f65.air3, Initial residual = 0, Final residual = 0, No Iterations 0
diagonal:  Solving for f66.air3, Initial residual = 0, Final residual = 0, No Iterations 0
diagonal:  Solving for f67.air3, Initial residual = 0, Final residual = 0, No Iterations 0
diagonal:  Solving for f68.air3, Initial residual = 0, Final residual = 0, No Iterations 0
diagonal:  Solving for f69.air3, Initial residual = 0, Final residual = 0, No Iterations 0
diagonal:  Solving for f70.air3, Initial residual = 0, Final residual = 0, No Iterations 0
bubbles sizeGroup phase fraction first, last = 1.75503e-11 0
air1 sizeGroups-sum volume fraction, min, max = 1 1 1
air1 Sauter mean diameter, min, max = 0.380131 0.380131 0.380131
air2 sizeGroups-sum volume fraction, min, max = 1 1 1
air2 Sauter mean diameter, min, max = 0.873066 0.873066 0.873066
air3 sizeGroups-sum volume fraction, min, max = 1 1 1
air3 Sauter mean diameter, min, max = 1.70521 1.70521 1.70521
Constructing momentum equations
diagonal:  Solving for p_rgh, Initial residual = 0, Final residual = 0, No Iterations 0
Time = 0.2s

ExecutionTime = 0.864061 s  ClockTime = 1 s

Courant Number mean: 0 max: 0
MULES: Solving for alpha.air1
MULES: Solving for alpha.air2
MULES: Solving for alpha.air3
MULES: Solving for alpha.water
air1 fraction, min, max = 0.0540848 0.0540848 0.0540848
air2 fraction, min, max = 1.41581e-10 1.41581e-10 1.41581e-10
air3 fraction, min, max = 0 0 0
water fraction, min, max = 0.945915 0.945915 0.945915
Phase-sum volume fraction, min, max = 1 1 1
populationBalance bubbles: Iteration 1
diagonal:  Solving for f0.air1, Initial residual = 0, Final residual = 0, No Iterations 0
diagonal:  Solving for f1.air1, Initial residual = 0, Final residual = 0, No Iterations 0
diagonal:  Solving for f2.air1, Initial residual = 0, Final residual = 0, No Iterations 0
diagonal:  Solving for f3.air1, Initial residual = 0, Final residual = 0, No Iterations 0
diagonal:  Solving for f4.air1, Initial residual = 0, Final residual = 0, No Iterations 0
diagonal:  Solving for f5.air1, Initial residual = 0, Final residual = 0, No Iterations 0
diagonal:  Solving for f6.air1, Initial residual = 0, Final residual = 0, No Iterations 0
diagonal:  Solving for f7.air1, Initial residual = 0, Final residual = 0, No Iterations 0
diagonal:  Solving for f8.air1, Initial residual = 0, Final residual = 0, No Iterations 0
diagonal:  Solving for f9.air1, Initial residual = 0, Final residual = 0, No Iterations 0
diagonal:  Solving for f10.air1, Initial residual = 0, Final residual = 0, No Iterations 0
diagonal:  Solving for f11.air1, Initial residual = 0, Final residual = 0, No Iterations 0
diagonal:  Solving for f12.air1, Initial residual = 0, Final residual = 0, No Iterations 0
diagonal:  Solving for f13.air1, Initial residual = 0, Final residual = 0, No Iterations 0
diagonal:  Solving for f14.air1, Initial residual = 0, Final residual = 0, No Iterations 0
diagonal:  Solving for f15.air1, Initial residual = 0, Final residual = 0, No Iterations 0
diagonal:  Solving for f16.air1, Initial residual = 0, Final residual = 0, No Iterations 0
diagonal:  Solving for f17.air1, Initial residual = 0, Final residual = 0, No Iterations 0
diagonal:  Solving for f18.air1, Initial residual = 0, Final residual = 0, No Iterations 0
diagonal:  Solving for f19.air1, Initial residual = 0, Final residual = 0, No Iterations 0
diagonal:  Solving for f20.air1, Initial residual = 0, Final residual = 0, No Iterations 0
diagonal:  Solving for f21.air1, Initial residual = 0, Final residual = 0, No Iterations 0
diagonal:  Solving for f22.air1, Initial residual = 0, Final residual = 0, No Iterations 0
diagonal:  Solving for f23.air1, Initial residual = 0, Final residual = 0, No Iterations 0
diagonal:  Solving for f24.air1, Initial residual = 0, Final residual = 0, No Iterations 0
diagonal:  Solving for f25.air1, Initial residual = 0, Final residual = 0, No Iterations 0
diagonal:  Solving for f26.air1, Initial residual = 0, Final residual = 0, No Iterations 0
diagonal:  Solving for f27.air1, Initial residual = 0, Final residual = 0, No Iterations 0
diagonal:  Solving for f28.air1, Initial residual = 0, Final residual = 0, No Iterations 0
diagonal:  Solving for f29.air1, Initial residual = 0, Final residual = 0, No Iterations 0
diagonal:  Solving for f30.air1, Initial residual = 0, Final residual = 0, No Iterations 0
diagonal:  Solving for f31.air1, Initial residual = 0, Final residual = 0, No Iterations 0
diagonal:  Solving for f32.air1, Initial residual = 0, Final residual = 0, No Iterations 0
diagonal:  Solving for f33.air1, Initial residual = 0, Final residual = 0, No Iterations 0
diagonal:  Solving for f34.air1, Initial residual = 0, Final residual = 0, No Iterations 0
diagonal:  Solving for f35.air1, Initial residual = 0, Final residual = 0, No Iterations 0
diagonal:  Solving for f36.air1, Initial residual = 0, Final residual = 0, No Iterations 0
diagonal:  Solving for f37.air1, Initial residual = 0, Final residual = 0, No Iterations 0
diagonal:  Solving for f38.air1, Initial residual = 0, Final residual = 0, No Iterations 0
diagonal:  Solving for f39.air1, Initial residual = 0, Final residual = 0, No Iterations 0
diagonal:  Solving for f40.air1, Initial residual = 0, Final residual = 0, No Iterations 0
diagonal:  Solving for f41.air1, Initial residual = 0, Final residual = 0, No Iterations 0
diagonal:  Solving for f42.air1, Initial residual = 0, Final residual = 0, No Iterations 0
diagonal:  Solving for f43.air1, Initial residual = 0, Final residual = 0, No Iterations 0
diagonal:  Solving for f44.air1, Initial residual = 0, Final residual = 0, No Iterations 0
diagonal:  Solving for f45.air1, Initial residual = 0, Final residual = 0, No Iterations 0
diagonal:  Solving for f46.air1, Initial residual = 0, Final residual = 0, No Iterations 0
diagonal:  Solving for f47.air2, Initial residual = 0, Final residual = 0, No Iterations 0
diagonal:  Solving for f48.air2, Initial residual = 0, Final residual = 0, No Iterations 0
diagonal:  Solving for f49.air2, Initial residual = 0, Final residual = 0, No Iterations 0
diagonal:  Solving for f50.air2, Initial residual = 0, Final residual = 0, No Iterations 0
diagonal:  Solving for f51.air2, Initial residual = 0, Final residual = 0, No Iterations 0
diagonal:  Solving for f52.air2, Initial residual = 0, Final residual = 0, No Iterations 0
diagonal:  Solving for f53.air2, Initial residual = 0, Final residual = 0, No Iterations 0
diagonal:  Solving for f54.air2, Initial residual = 0, Final residual = 0, No Iterations 0
diagonal:  Solving for f55.air2, Initial residual = 0, Final residual = 0, No Iterations 0
diagonal:  Solving for f56.air3, Initial residual = 0, Final residual = 0, No Iterations 0
diagonal:  Solving for f57.air3, Initial residual = 0, Final residual = 0, No Iterations 0
diagonal:  Solving for f58.air3, Initial residual = 0, Final residual = 0, No Iterations 0
diagonal:  Solving for f59.air3, Initial residual = 0, Final residual = 0, No Iterations 0
diagonal:  Solving for f60.air3, Initial residual = 0, Final residual = 0, No Iterations 0
diagonal:  Solving for f61.air3, Initial residual = 0, Final residual = 0, No Iterations 0
diagonal:  Solving for f62.air3, Initial residual = 0, Final residual = 0, No Iterations 0
diagonal:  Solving for f63.air3, Initial residual = 0, Final residual = 0, No Iterations 0
diagonal:  Solving for f64.air3, Initial residual = 0, Final residual = 0, No Iterations 0
diagonal:  Solving for f65.air3, Initial residual = 0, Final residual = 0, No Iterations 0
diagonal:  Solving for f66.air3, Initial residual = 0, Final residual = 0, No Iterations 0
diagonal:  Solving for f67.air3, Initial residual = 0, Final residual = 0, No Iterations 0
diagonal:  Solving for f68.air3, Initial residual = 0, Final residual = 0, No Iterations 0
diagonal:  Solving for f69.air3, Initial residual = 0, Final residual = 0, No Iterations 0
diagonal:  Solving for f70.air3, Initial residual = 0, Final residual = 0, No Iterations 0
bubbles sizeGroup phase fraction first, last = 1.21378e-11 0
air1 sizeGroups-sum volume fraction, min, max = 1 1 1
air1 Sauter mean diameter, min, max = 0.403103 0.403103 0.403103
air2 sizeGroups-sum volume fraction, min, max = 1 1 1
air2 Sauter mean diameter, min, max = 0.873073 0.873073 0.873073
air3 sizeGroups-sum volume fraction, min, max = 1 1 1
air3 Sauter mean diameter, min, max = 1.70521 1.70521 1.70521
Constructing momentum equations
diagonal:  Solving for p_rgh, Initial residual = 0, Final residual = 0, No Iterations 0
Time = 0.4s

ExecutionTime = 1.3025 s  ClockTime = 2 s

Courant Number mean: 0 max: 0
MULES: Solving for alpha.air1
MULES: Solving for alpha.air2
MULES: Solving for alpha.air3
MULES: Solving for alpha.water
air1 fraction, min, max = 0.0540848 0.0540848 0.0540848
air2 fraction, min, max = 1.47967e-08 1.47967e-08 1.47967e-08
air3 fraction, min, max = 0 0 0
water fraction, min, max = 0.945915 0.945915 0.945915
Phase-sum volume fraction, min, max = 1 1 1
populationBalance bubbles: Iteration 1
diagonal:  Solving for f0.air1, Initial residual = 0, Final residual = 0, No Iterations 0
diagonal:  Solving for f1.air1, Initial residual = 0, Final residual = 0, No Iterations 0
diagonal:  Solving for f2.air1, Initial residual = 0, Final residual = 0, No Iterations 0
diagonal:  Solving for f3.air1, Initial residual = 0, Final residual = 0, No Iterations 0
diagonal:  Solving for f4.air1, Initial residual = 0, Final residual = 0, No Iterations 0
diagonal:  Solving for f5.air1, Initial residual = 0, Final residual = 0, No Iterations 0
diagonal:  Solving for f6.air1, Initial residual = 0, Final residual = 0, No Iterations 0
diagonal:  Solving for f7.air1, Initial residual = 0, Final residual = 0, No Iterations 0
diagonal:  Solving for f8.air1, Initial residual = 0, Final residual = 0, No Iterations 0
diagonal:  Solving for f9.air1, Initial residual = 0, Final residual = 0, No Iterations 0
diagonal:  Solving for f10.air1, Initial residual = 0, Final residual = 0, No Iterations 0
diagonal:  Solving for f11.air1, Initial residual = 0, Final residual = 0, No Iterations 0
diagonal:  Solving for f12.air1, Initial residual = 0, Final residual = 0, No Iterations 0
diagonal:  Solving for f13.air1, Initial residual = 0, Final residual = 0, No Iterations 0
diagonal:  Solving for f14.air1, Initial residual = 0, Final residual = 0, No Iterations 0
diagonal:  Solving for f15.air1, Initial residual = 0, Final residual = 0, No Iterations 0
diagonal:  Solving for f16.air1, Initial residual = 0, Final residual = 0, No Iterations 0
diagonal:  Solving for f17.air1, Initial residual = 0, Final residual = 0, No Iterations 0
diagonal:  Solving for f18.air1, Initial residual = 0, Final residual = 0, No Iterations 0
diagonal:  Solving for f19.air1, Initial residual = 0, Final residual = 0, No Iterations 0
diagonal:  Solving for f20.air1, Initial residual = 0, Final residual = 0, No Iterations 0
diagonal:  Solving for f21.air1, Initial residual = 0, Final residual = 0, No Iterations 0
diagonal:  Solving for f22.air1, Initial residual = 0, Final residual = 0, No Iterations 0
diagonal:  Solving for f23.air1, Initial residual = 0, Final residual = 0, No Iterations 0
diagonal:  Solving for f24.air1, Initial residual = 0, Final residual = 0, No Iterations 0
diagonal:  Solving for f25.air1, Initial residual = 0, Final residual = 0, No Iterations 0
diagonal:  Solving for f26.air1, Initial residual = 0, Final residual = 0, No Iterations 0
diagonal:  Solving for f27.air1, Initial residual = 0, Final residual = 0, No Iterations 0
diagonal:  Solving for f28.air1, Initial residual = 0, Final residual = 0, No Iterations 0
diagonal:  Solving for f29.air1, Initial residual = 0, Final residual = 0, No Iterations 0
diagonal:  Solving for f30.air1, Initial residual = 0, Final residual = 0, No Iterations 0
diagonal:  Solving for f31.air1, Initial residual = 0, Final residual = 0, No Iterations 0
diagonal:  Solving for f32.air1, Initial residual = 0, Final residual = 0, No Iterations 0
diagonal:  Solving for f33.air1, Initial residual = 0, Final residual = 0, No Iterations 0
diagonal:  Solving for f34.air1, Initial residual = 0, Final residual = 0, No Iterations 0
diagonal:  Solving for f35.air1, Initial residual = 0, Final residual = 0, No Iterations 0
diagonal:  Solving for f36.air1, Initial residual = 0, Final residual = 0, No Iterations 0
diagonal:  Solving for f37.air1, Initial residual = 0, Final residual = 0, No Iterations 0
diagonal:  Solving for f38.air1, Initial residual = 0, Final residual = 0, No Iterations 0
diagonal:  Solving for f39.air1, Initial residual = 0, Final residual = 0, No Iterations 0
diagonal:  Solving for f40.air1, Initial residual = 0, Final residual = 0, No Iterations 0
diagonal:  Solving for f41.air1, Initial residual = 0, Final residual = 0, No Iterations 0
diagonal:  Solving for f42.air1, Initial residual = 0, Final residual = 0, No Iterations 0
diagonal:  Solving for f43.air1, Initial residual = 0, Final residual = 0, No Iterations 0
diagonal:  Solving for f44.air1, Initial residual = 0, Final residual = 0, No Iterations 0
diagonal:  Solving for f45.air1, Initial residual = 0, Final residual = 0, No Iterations 0
diagonal:  Solving for f46.air1, Initial residual = 0, Final residual = 0, No Iterations 0
diagonal:  Solving for f47.air2, Initial residual = 0, Final residual = 0, No Iterations 0
diagonal:  Solving for f48.air2, Initial residual = 0, Final residual = 0, No Iterations 0
diagonal:  Solving for f49.air2, Initial residual = 0, Final residual = 0, No Iterations 0
diagonal:  Solving for f50.air2, Initial residual = 0, Final residual = 0, No Iterations 0
diagonal:  Solving for f51.air2, Initial residual = 0, Final residual = 0, No Iterations 0
diagonal:  Solving for f52.air2, Initial residual = 0, Final residual = 0, No Iterations 0
diagonal:  Solving for f53.air2, Initial residual = 0, Final residual = 0, No Iterations 0
diagonal:  Solving for f54.air2, Initial residual = 0, Final residual = 0, No Iterations 0
diagonal:  Solving for f55.air2, Initial residual = 0, Final residual = 0, No Iterations 0
diagonal:  Solving for f56.air3, Initial residual = 0, Final residual = 0, No Iterations 0
diagonal:  Solving for f57.air3, Initial residual = 0, Final residual = 0, No Iterations 0
diagonal:  Solving for f58.air3, Initial residual = 0, Final residual = 0, No Iterations 0
diagonal:  Solving for f59.air3, Initial residual = 0, Final residual = 0, No Iterations 0
diagonal:  Solving for f60.air3, Initial residual = 0, Final residual = 0, No Iterations 0
diagonal:  Solving for f61.air3, Initial residual = 0, Final residual = 0, No Iterations 0
diagonal:  Solving for f62.air3, Initial residual = 0, Final residual = 0, No Iterations 0
diagonal:  Solving for f63.air3, Initial residual = 0, Final residual = 0, No Iterations 0
diagonal:  Solving for f64.air3, Initial residual = 0, Final residual = 0, No Iterations 0
diagonal:  Solving for f65.air3, Initial residual = 0, Final residual = 0, No Iterations 0
diagonal:  Solving for f66.air3, Initial residual = 0, Final residual = 0, No Iterations 0
diagonal:  Solving for f67.air3, Initial residual = 0, Final residual = 0, No Iterations 0
diagonal:  Solving for f68.air3, Initial residual = 0, Final residual = 0, No Iterations 0
diagonal:  Solving for f69.air3, Initial residual = 0, Final residual = 0, No Iterations 0
diagonal:  Solving for f70.air3, Initial residual = 0, Final residual = 0, No Iterations 0
bubbles sizeGroup phase fraction first, last = 8.81364e-12 0
air1 sizeGroups-sum volume fraction, min, max = 1 1 1
air1 Sauter mean diameter, min, max = 0.424462 0.424462 0.424462
air2 sizeGroups-sum volume fraction, min, max = 1 1 1
air2 Sauter mean diameter, min, max = 0.873495 0.873495 0.873495
air3 sizeGroups-sum volume fraction, min, max = 1 1 1
air3 Sauter mean diameter, min, max = 1.70521 1.70521 1.70521
Constructing momentum equations
diagonal:  Solving for p_rgh, Initial residual = 0, Final residual = 0, No Iterations 0
Time = 0.6s

ExecutionTime = 1.70962 s  ClockTime = 3 s

Courant Number mean: 0 max: 0
MULES: Solving for alpha.air1
MULES: Solving for alpha.air2
MULES: Solving for alpha.air3
MULES: Solving for alpha.water
air1 fraction, min, max = 0.0540844 0.0540844 0.0540844
air2 fraction, min, max = 4.42511e-07 4.42511e-07 4.42511e-07
air3 fraction, min, max = 9.63165e-67 9.63165e-67 9.63165e-67
water fraction, min, max = 0.945915 0.945915 0.945915
Phase-sum volume fraction, min, max = 1 1 1
populationBalance bubbles: Iteration 1
diagonal:  Solving for f0.air1, Initial residual = 0, Final residual = 0, No Iterations 0
diagonal:  Solving for f1.air1, Initial residual = 0, Final residual = 0, No Iterations 0
diagonal:  Solving for f2.air1, Initial residual = 0, Final residual = 0, No Iterations 0
diagonal:  Solving for f3.air1, Initial residual = 0, Final residual = 0, No Iterations 0
diagonal:  Solving for f4.air1, Initial residual = 0, Final residual = 0, No Iterations 0
diagonal:  Solving for f5.air1, Initial residual = 0, Final residual = 0, No Iterations 0
diagonal:  Solving for f6.air1, Initial residual = 0, Final residual = 0, No Iterations 0
diagonal:  Solving for f7.air1, Initial residual = 0, Final residual = 0, No Iterations 0
diagonal:  Solving for f8.air1, Initial residual = 0, Final residual = 0, No Iterations 0
diagonal:  Solving for f9.air1, Initial residual = 0, Final residual = 0, No Iterations 0
diagonal:  Solving for f10.air1, Initial residual = 0, Final residual = 0, No Iterations 0
diagonal:  Solving for f11.air1, Initial residual = 0, Final residual = 0, No Iterations 0
diagonal:  Solving for f12.air1, Initial residual = 0, Final residual = 0, No Iterations 0
diagonal:  Solving for f13.air1, Initial residual = 0, Final residual = 0, No Iterations 0
diagonal:  Solving for f14.air1, Initial residual = 0, Final residual = 0, No Iterations 0
diagonal:  Solving for f15.air1, Initial residual = 0, Final residual = 0, No Iterations 0
diagonal:  Solving for f16.air1, Initial residual = 0, Final residual = 0, No Iterations 0
diagonal:  Solving for f17.air1, Initial residual = 0, Final residual = 0, No Iterations 0
diagonal:  Solving for f18.air1, Initial residual = 0, Final residual = 0, No Iterations 0
diagonal:  Solving for f19.air1, Initial residual = 0, Final residual = 0, No Iterations 0
diagonal:  Solving for f20.air1, Initial residual = 0, Final residual = 0, No Iterations 0
diagonal:  Solving for f21.air1, Initial residual = 0, Final residual = 0, No Iterations 0
diagonal:  Solving for f22.air1, Initial residual = 0, Final residual = 0, No Iterations 0
diagonal:  Solving for f23.air1, Initial residual = 0, Final residual = 0, No Iterations 0
diagonal:  Solving for f24.air1, Initial residual = 0, Final residual = 0, No Iterations 0
diagonal:  Solving for f25.air1, Initial residual = 0, Final residual = 0, No Iterations 0
diagonal:  Solving for f26.air1, Initial residual = 0, Final residual = 0, No Iterations 0
diagonal:  Solving for f27.air1, Initial residual = 0, Final residual = 0, No Iterations 0
diagonal:  Solving for f28.air1, Initial residual = 0, Final residual = 0, No Iterations 0
diagonal:  Solving for f29.air1, Initial residual = 0, Final residual = 0, No Iterations 0
diagonal:  Solving for f30.air1, Initial residual = 0, Final residual = 0, No Iterations 0
diagonal:  Solving for f31.air1, Initial residual = 0, Final residual = 0, No Iterations 0
diagonal:  Solving for f32.air1, Initial residual = 0, Final residual = 0, No Iterations 0
diagonal:  Solving for f33.air1, Initial residual = 0, Final residual = 0, No Iterations 0
diagonal:  Solving for f34.air1, Initial residual = 0, Final residual = 0, No Iterations 0
diagonal:  Solving for f35.air1, Initial residual = 0, Final residual = 0, No Iterations 0
diagonal:  Solving for f36.air1, Initial residual = 0, Final residual = 0, No Iterations 0
diagonal:  Solving for f37.air1, Initial residual = 0, Final residual = 0, No Iterations 0
diagonal:  Solving for f38.air1, Initial residual = 0, Final residual = 0, No Iterations 0
diagonal:  Solving for f39.air1, Initial residual = 0, Final residual = 0, No Iterations 0
diagonal:  Solving for f40.air1, Initial residual = 0, Final residual = 0, No Iterations 0
diagonal:  Solving for f41.air1, Initial residual = 0, Final residual = 0, No Iterations 0
diagonal:  Solving for f42.air1, Initial residual = 0, Final residual = 0, No Iterations 0
diagonal:  Solving for f43.air1, Initial residual = 0, Final residual = 0, No Iterations 0
diagonal:  Solving for f44.air1, Initial residual = 0, Final residual = 0, No Iterations 0
diagonal:  Solving for f45.air1, Initial residual = 0, Final residual = 0, No Iterations 0
diagonal:  Solving for f46.air1, Initial residual = 0, Final residual = 0, No Iterations 0
diagonal:  Solving for f47.air2, Initial residual = 0, Final residual = 0, No Iterations 0
diagonal:  Solving for f48.air2, Initial residual = 0, Final residual = 0, No Iterations 0
diagonal:  Solving for f49.air2, Initial residual = 0, Final residual = 0, No Iterations 0
diagonal:  Solving for f50.air2, Initial residual = 0, Final residual = 0, No Iterations 0
diagonal:  Solving for f51.air2, Initial residual = 0, Final residual = 0, No Iterations 0
diagonal:  Solving for f52.air2, Initial residual = 0, Final residual = 0, No Iterations 0
diagonal:  Solving for f53.air2, Initial residual = 0, Final residual = 0, No Iterations 0
diagonal:  Solving for f54.air2, Initial residual = 0, Final residual = 0, No Iterations 0
diagonal:  Solving for f55.air2, Initial residual = 0, Final residual = 0, No Iterations 0
diagonal:  Solving for f56.air3, Initial residual = 0, Final residual = 0, No Iterations 0
diagonal:  Solving for f57.air3, Initial residual = 0, Final residual = 0, No Iterations 0
diagonal:  Solving for f58.air3, Initial residual = 0, Final residual = 0, No Iterations 0
diagonal:  Solving for f59.air3, Initial residual = 0, Final residual = 0, No Iterations 0
diagonal:  Solving for f60.air3, Initial residual = 0, Final residual = 0, No Iterations 0
diagonal:  Solving for f61.air3, Initial residual = 0, Final residual = 0, No Iterations 0
diagonal:  Solving for f62.air3, Initial residual = 0, Final residual = 0, No Iterations 0
diagonal:  Solving for f63.air3, Initial residual = 0, Final residual = 0, No Iterations 0
diagonal:  Solving for f64.air3, Initial residual = 0, Final residual = 0, No Iterations 0
diagonal:  Solving for f65.air3, Initial residual = 0, Final residual = 0, No Iterations 0
diagonal:  Solving for f66.air3, Initial residual = 0, Final residual = 0, No Iterations 0
diagonal:  Solving for f67.air3, Initial residual = 0, Final residual = 0, No Iterations 0
diagonal:  Solving for f68.air3, Initial residual = 0, Final residual = 0, No Iterations 0
diagonal:  Solving for f69.air3, Initial residual = 0, Final residual = 0, No Iterations 0
diagonal:  Solving for f70.air3, Initial residual = 0, Final residual = 0, No Iterations 0
bubbles sizeGroup phase fraction first, last = 6.64957e-12 0
air1 sizeGroups-sum volume fraction, min, max = 1 1 1
air1 Sauter mean diameter, min, max = 0.4444 0.4444 0.4444
air2 sizeGroups-sum volume fraction, min, max = 1 1 1
air2 Sauter mean diameter, min, max = 0.875929 0.875929 0.875929
air3 sizeGroups-sum volume fraction, min, max = 1 1 1
air3 Sauter mean diameter, min, max = 1.70521 1.70521 1.70521
Constructing momentum equations
diagonal:  Solving for p_rgh, Initial residual = 0, Final residual = 0, No Iterations 0
Time = 0.8s

ExecutionTime = 2.11333 s  ClockTime = 3 s

Courant Number mean: 0 max: 0
MULES: Solving for alpha.air1
MULES: Solving for alpha.air2
MULES: Solving for alpha.air3
MULES: Solving for alpha.water
air1 fraction, min, max = 0.05408 0.05408 0.05408
air2 fraction, min, max = 4.81521e-06 4.81521e-06 4.81521e-06
air3 fraction, min, max = 3.01275e-48 3.01275e-48 3.01275e-48
water fraction, min, max = 0.945915 0.945915 0.945915
Phase-sum volume fraction, min, max = 1 1 1
populationBalance bubbles: Iteration 1
diagonal:  Solving for f0.air1, Initial residual = 0, Final residual = 0, No Iterations 0
diagonal:  Solving for f1.air1, Initial residual = 0, Final residual = 0, No Iterations 0
diagonal:  Solving for f2.air1, Initial residual = 0, Final residual = 0, No Iterations 0
diagonal:  Solving for f3.air1, Initial residual = 0, Final residual = 0, No Iterations 0
diagonal:  Solving for f4.air1, Initial residual = 0, Final residual = 0, No Iterations 0
diagonal:  Solving for f5.air1, Initial residual = 0, Final residual = 0, No Iterations 0
diagonal:  Solving for f6.air1, Initial residual = 0, Final residual = 0, No Iterations 0
diagonal:  Solving for f7.air1, Initial residual = 0, Final residual = 0, No Iterations 0
diagonal:  Solving for f8.air1, Initial residual = 0, Final residual = 0, No Iterations 0
diagonal:  Solving for f9.air1, Initial residual = 0, Final residual = 0, No Iterations 0
diagonal:  Solving for f10.air1, Initial residual = 0, Final residual = 0, No Iterations 0
diagonal:  Solving for f11.air1, Initial residual = 0, Final residual = 0, No Iterations 0
diagonal:  Solving for f12.air1, Initial residual = 0, Final residual = 0, No Iterations 0
diagonal:  Solving for f13.air1, Initial residual = 0, Final residual = 0, No Iterations 0
diagonal:  Solving for f14.air1, Initial residual = 0, Final residual = 0, No Iterations 0
diagonal:  Solving for f15.air1, Initial residual = 0, Final residual = 0, No Iterations 0
diagonal:  Solving for f16.air1, Initial residual = 0, Final residual = 0, No Iterations 0
diagonal:  Solving for f17.air1, Initial residual = 0, Final residual = 0, No Iterations 0
diagonal:  Solving for f18.air1, Initial residual = 0, Final residual = 0, No Iterations 0
diagonal:  Solving for f19.air1, Initial residual = 0, Final residual = 0, No Iterations 0
diagonal:  Solving for f20.air1, Initial residual = 0, Final residual = 0, No Iterations 0
diagonal:  Solving for f21.air1, Initial residual = 0, Final residual = 0, No Iterations 0
diagonal:  Solving for f22.air1, Initial residual = 0, Final residual = 0, No Iterations 0
diagonal:  Solving for f23.air1, Initial residual = 0, Final residual = 0, No Iterations 0
diagonal:  Solving for f24.air1, Initial residual = 0, Final residual = 0, No Iterations 0
diagonal:  Solving for f25.air1, Initial residual = 0, Final residual = 0, No Iterations 0
diagonal:  Solving for f26.air1, Initial residual = 0, Final residual = 0, No Iterations 0
diagonal:  Solving for f27.air1, Initial residual = 0, Final residual = 0, No Iterations 0
diagonal:  Solving for f28.air1, Initial residual = 0, Final residual = 0, No Iterations 0
diagonal:  Solving for f29.air1, Initial residual = 0, Final residual = 0, No Iterations 0
diagonal:  Solving for f30.air1, Initial residual = 0, Final residual = 0, No Iterations 0
diagonal:  Solving for f31.air1, Initial residual = 0, Final residual = 0, No Iterations 0
diagonal:  Solving for f32.air1, Initial residual = 0, Final residual = 0, No Iterations 0
diagonal:  Solving for f33.air1, Initial residual = 0, Final residual = 0, No Iterations 0
diagonal:  Solving for f34.air1, Initial residual = 0, Final residual = 0, No Iterations 0
diagonal:  Solving for f35.air1, Initial residual = 0, Final residual = 0, No Iterations 0
diagonal:  Solving for f36.air1, Initial residual = 0, Final residual = 0, No Iterations 0
diagonal:  Solving for f37.air1, Initial residual = 0, Final residual = 0, No Iterations 0
diagonal:  Solving for f38.air1, Initial residual = 0, Final residual = 0, No Iterations 0
diagonal:  Solving for f39.air1, Initial residual = 0, Final residual = 0, No Iterations 0
diagonal:  Solving for f40.air1, Initial residual = 0, Final residual = 0, No Iterations 0
diagonal:  Solving for f41.air1, Initial residual = 0, Final residual = 0, No Iterations 0
diagonal:  Solving for f42.air1, Initial residual = 0, Final residual = 0, No Iterations 0
diagonal:  Solving for f43.air1, Initial residual = 0, Final residual = 0, No Iterations 0
diagonal:  Solving for f44.air1, Initial residual = 0, Final residual = 0, No Iterations 0
diagonal:  Solving for f45.air1, Initial residual = 0, Final residual = 0, No Iterations 0
diagonal:  Solving for f46.air1, Initial residual = 0, Final residual = 0, No Iterations 0
diagonal:  Solving for f47.air2, Initial residual = 0, Final residual = 0, No Iterations 0
diagonal:  Solving for f48.air2, Initial residual = 0, Final residual = 0, No Iterations 0
diagonal:  Solving for f49.air2, Initial residual = 0, Final residual = 0, No Iterations 0
diagonal:  Solving for f50.air2, Initial residual = 0, Final residual = 0, No Iterations 0
diagonal:  Solving for f51.air2, Initial residual = 0, Final residual = 0, No Iterations 0
diagonal:  Solving for f52.air2, Initial residual = 0, Final residual = 0, No Iterations 0
diagonal:  Solving for f53.air2, Initial residual = 0, Final residual = 0, No Iterations 0
diagonal:  Solving for f54.air2, Initial residual = 0, Final residual = 0, No Iterations 0
diagonal:  Solving for f55.air2, Initial residual = 0, Final residual = 0, No Iterations 0
diagonal:  Solving for f56.air3, Initial residual = 0, Final residual = 0, No Iterations 0
diagonal:  Solving for f57.air3, Initial residual = 0, Final residual = 0, No Iterations 0
diagonal:  Solving for f58.air3, Initial residual = 0, Final residual = 0, No Iterations 0
diagonal:  Solving for f59.air3, Initial residual = 0, Final residual = 0, No Iterations 0
diagonal:  Solving for f60.air3, Initial residual = 0, Final residual = 0, No Iterations 0
diagonal:  Solving for f61.air3, Initial residual = 0, Final residual = 0, No Iterations 0
diagonal:  Solving for f62.air3, Initial residual = 0, Final residual = 0, No Iterations 0
diagonal:  Solving for f63.air3, Initial residual = 0, Final residual = 0, No Iterations 0
diagonal:  Solving for f64.air3, Initial residual = 0, Final residual = 0, No Iterations 0
diagonal:  Solving for f65.air3, Initial residual = 0, Final residual = 0, No Iterations 0
diagonal:  Solving for f66.air3, Initial residual = 0, Final residual = 0, No Iterations 0
diagonal:  Solving for f67.air3, Initial residual = 0, Final residual = 0, No Iterations 0
diagonal:  Solving for f68.air3, Initial residual = 0, Final residual = 0, No Iterations 0
diagonal:  Solving for f69.air3, Initial residual = 0, Final residual = 0, No Iterations 0
diagonal:  Solving for f70.air3, Initial residual = 0, Final residual = 0, No Iterations 0
bubbles sizeGroup phase fraction first, last = 5.17385e-12 0
air1 sizeGroups-sum volume fraction, min, max = 1 1 1
air1 Sauter mean diameter, min, max = 0.463054 0.463054 0.463054
air2 sizeGroups-sum volume fraction, min, max = 1 1 1
air2 Sauter mean diameter, min, max = 0.878893 0.878893 0.878893
air3 sizeGroups-sum volume fraction, min, max = 1 1 1
air3 Sauter mean diameter, min, max = 1.70521 1.70521 1.70521
Constructing momentum equations
diagonal:  Solving for p_rgh, Initial residual = 0, Final residual = 0, No Iterations 0
Time = 1s

ExecutionTime = 2.60452 s  ClockTime = 4 s

Courant Number mean: 0 max: 0
MULES: Solving for alpha.air1
MULES: Solving for alpha.air2
MULES: Solving for alpha.air3
MULES: Solving for alpha.water
air1 fraction, min, max = 0.0540585 0.0540585 0.0540585
air2 fraction, min, max = 2.62695e-05 2.62695e-05 2.62695e-05
air3 fraction, min, max = 6.11975e-37 6.11975e-37 6.11975e-37
water fraction, min, max = 0.945915 0.945915 0.945915
Phase-sum volume fraction, min, max = 1 1 1
populationBalance bubbles: Iteration 1
diagonal:  Solving for f0.air1, Initial residual = 0, Final residual = 0, No Iterations 0
diagonal:  Solving for f1.air1, Initial residual = 0, Final residual = 0, No Iterations 0
diagonal:  Solving for f2.air1, Initial residual = 0, Final residual = 0, No Iterations 0
diagonal:  Solving for f3.air1, Initial residual = 0, Final residual = 0, No Iterations 0
diagonal:  Solving for f4.air1, Initial residual = 0, Final residual = 0, No Iterations 0
diagonal:  Solving for f5.air1, Initial residual = 0, Final residual = 0, No Iterations 0
diagonal:  Solving for f6.air1, Initial residual = 0, Final residual = 0, No Iterations 0
diagonal:  Solving for f7.air1, Initial residual = 0, Final residual = 0, No Iterations 0
diagonal:  Solving for f8.air1, Initial residual = 0, Final residual = 0, No Iterations 0
diagonal:  Solving for f9.air1, Initial residual = 0, Final residual = 0, No Iterations 0
diagonal:  Solving for f10.air1, Initial residual = 0, Final residual = 0, No Iterations 0
diagonal:  Solving for f11.air1, Initial residual = 0, Final residual = 0, No Iterations 0
diagonal:  Solving for f12.air1, Initial residual = 0, Final residual = 0, No Iterations 0
diagonal:  Solving for f13.air1, Initial residual = 0, Final residual = 0, No Iterations 0
diagonal:  Solving for f14.air1, Initial residual = 0, Final residual = 0, No Iterations 0
diagonal:  Solving for f15.air1, Initial residual = 0, Final residual = 0, No Iterations 0
diagonal:  Solving for f16.air1, Initial residual = 0, Final residual = 0, No Iterations 0
diagonal:  Solving for f17.air1, Initial residual = 0, Final residual = 0, No Iterations 0
diagonal:  Solving for f18.air1, Initial residual = 0, Final residual = 0, No Iterations 0
diagonal:  Solving for f19.air1, Initial residual = 0, Final residual = 0, No Iterations 0
diagonal:  Solving for f20.air1, Initial residual = 0, Final residual = 0, No Iterations 0
diagonal:  Solving for f21.air1, Initial residual = 0, Final residual = 0, No Iterations 0
diagonal:  Solving for f22.air1, Initial residual = 0, Final residual = 0, No Iterations 0
diagonal:  Solving for f23.air1, Initial residual = 0, Final residual = 0, No Iterations 0
diagonal:  Solving for f24.air1, Initial residual = 0, Final residual = 0, No Iterations 0
diagonal:  Solving for f25.air1, Initial residual = 0, Final residual = 0, No Iterations 0
diagonal:  Solving for f26.air1, Initial residual = 0, Final residual = 0, No Iterations 0
diagonal:  Solving for f27.air1, Initial residual = 0, Final residual = 0, No Iterations 0
diagonal:  Solving for f28.air1, Initial residual = 0, Final residual = 0, No Iterations 0
diagonal:  Solving for f29.air1, Initial residual = 0, Final residual = 0, No Iterations 0
diagonal:  Solving for f30.air1, Initial residual = 0, Final residual = 0, No Iterations 0
diagonal:  Solving for f31.air1, Initial residual = 0, Final residual = 0, No Iterations 0
diagonal:  Solving for f32.air1, Initial residual = 0, Final residual = 0, No Iterations 0
diagonal:  Solving for f33.air1, Initial residual = 0, Final residual = 0, No Iterations 0
diagonal:  Solving for f34.air1, Initial residual = 0, Final residual = 0, No Iterations 0
diagonal:  Solving for f35.air1, Initial residual = 0, Final residual = 0, No Iterations 0
diagonal:  Solving for f36.air1, Initial residual = 0, Final residual = 0, No Iterations 0
diagonal:  Solving for f37.air1, Initial residual = 0, Final residual = 0, No Iterations 0
diagonal:  Solving for f38.air1, Initial residual = 0, Final residual = 0, No Iterations 0
diagonal:  Solving for f39.air1, Initial residual = 0, Final residual = 0, No Iterations 0
diagonal:  Solving for f40.air1, Initial residual = 0, Final residual = 0, No Iterations 0
diagonal:  Solving for f41.air1, Initial residual = 0, Final residual = 0, No Iterations 0
diagonal:  Solving for f42.air1, Initial residual = 0, Final residual = 0, No Iterations 0
diagonal:  Solving for f43.air1, Initial residual = 0, Final residual = 0, No Iterations 0
diagonal:  Solving for f44.air1, Initial residual = 0, Final residual = 0, No Iterations 0
diagonal:  Solving for f45.air1, Initial residual = 0, Final residual = 0, No Iterations 0
diagonal:  Solving for f46.air1, Initial residual = 0, Final residual = 0, No Iterations 0
diagonal:  Solving for f47.air2, Initial residual = 0, Final residual = 0, No Iterations 0
diagonal:  Solving for f48.air2, Initial residual = 0, Final residual = 0, No Iterations 0
diagonal:  Solving for f49.air2, Initial residual = 0, Final residual = 0, No Iterations 0
diagonal:  Solving for f50.air2, Initial residual = 0, Final residual = 0, No Iterations 0
diagonal:  Solving for f51.air2, Initial residual = 0, Final residual = 0, No Iterations 0
diagonal:  Solving for f52.air2, Initial residual = 0, Final residual = 0, No Iterations 0
diagonal:  Solving for f53.air2, Initial residual = 0, Final residual = 0, No Iterations 0
diagonal:  Solving for f54.air2, Initial residual = 0, Final residual = 0, No Iterations 0
diagonal:  Solving for f55.air2, Initial residual = 0, Final residual = 0, No Iterations 0
diagonal:  Solving for f56.air3, Initial residual = 0, Final residual = 0, No Iterations 0
diagonal:  Solving for f57.air3, Initial residual = 0, Final residual = 0, No Iterations 0
diagonal:  Solving for f58.air3, Initial residual = 0, Final residual = 0, No Iterations 0
diagonal:  Solving for f59.air3, Initial residual = 0, Final residual = 0, No Iterations 0
diagonal:  Solving for f60.air3, Initial residual = 0, Final residual = 0, No Iterations 0
diagonal:  Solving for f61.air3, Initial residual = 0, Final residual = 0, No Iterations 0
diagonal:  Solving for f62.air3, Initial residual = 0, Final residual = 0, No Iterations 0
diagonal:  Solving for f63.air3, Initial residual = 0, Final residual = 0, No Iterations 0
diagonal:  Solving for f64.air3, Initial residual = 0, Final residual = 0, No Iterations 0
diagonal:  Solving for f65.air3, Initial residual = 0, Final residual = 0, No Iterations 0
diagonal:  Solving for f66.air3, Initial residual = 0, Final residual = 0, No Iterations 0
diagonal:  Solving for f67.air3, Initial residual = 0, Final residual = 0, No Iterations 0
diagonal:  Solving for f68.air3, Initial residual = 0, Final residual = 0, No Iterations 0
diagonal:  Solving for f69.air3, Initial residual = 0, Final residual = 0, No Iterations 0
diagonal:  Solving for f70.air3, Initial residual = 0, Final residual = 0, No Iterations 0
bubbles sizeGroup phase fraction first, last = 4.12916e-12 0
air1 sizeGroups-sum volume fraction, min, max = 1 1 1
air1 Sauter mean diameter, min, max = 0.48048 0.48048 0.48048
air2 sizeGroups-sum volume fraction, min, max = 1 1 1
air2 Sauter mean diameter, min, max = 0.882187 0.882187 0.882187
air3 sizeGroups-sum volume fraction, min, max = 1 1 1
air3 Sauter mean diameter, min, max = 1.70521 1.70521 1.70521
Constructing momentum equations
diagonal:  Solving for p_rgh, Initial residual = 0, Final residual = 0, No Iterations 0
Time = 1.2s

ExecutionTime = 3.5628 s  ClockTime = 5 s

Courant Number mean: 0 max: 0
MULES: Solving for alpha.air1
MULES: Solving for alpha.air2
MULES: Solving for alpha.air3
MULES: Solving for alpha.water
air1 fraction, min, max = 0.0539935 0.0539935 0.0539935
air2 fraction, min, max = 9.13969e-05 9.13969e-05 9.13969e-05
air3 fraction, min, max = 1.03807e-29 1.03807e-29 1.03807e-29
water fraction, min, max = 0.945915 0.945915 0.945915
Phase-sum volume fraction, min, max = 1 1 1
populationBalance bubbles: Iteration 1
diagonal:  Solving for f0.air1, Initial residual = 0, Final residual = 0, No Iterations 0
diagonal:  Solving for f1.air1, Initial residual = 0, Final residual = 0, No Iterations 0
diagonal:  Solving for f2.air1, Initial residual = 0, Final residual = 0, No Iterations 0
diagonal:  Solving for f3.air1, Initial residual = 0, Final residual = 0, No Iterations 0
diagonal:  Solving for f4.air1, Initial residual = 0, Final residual = 0, No Iterations 0
diagonal:  Solving for f5.air1, Initial residual = 0, Final residual = 0, No Iterations 0
diagonal:  Solving for f6.air1, Initial residual = 0, Final residual = 0, No Iterations 0
diagonal:  Solving for f7.air1, Initial residual = 0, Final residual = 0, No Iterations 0
diagonal:  Solving for f8.air1, Initial residual = 0, Final residual = 0, No Iterations 0
diagonal:  Solving for f9.air1, Initial residual = 0, Final residual = 0, No Iterations 0
diagonal:  Solving for f10.air1, Initial residual = 0, Final residual = 0, No Iterations 0
diagonal:  Solving for f11.air1, Initial residual = 0, Final residual = 0, No Iterations 0
diagonal:  Solving for f12.air1, Initial residual = 0, Final residual = 0, No Iterations 0
diagonal:  Solving for f13.air1, Initial residual = 0, Final residual = 0, No Iterations 0
diagonal:  Solving for f14.air1, Initial residual = 0, Final residual = 0, No Iterations 0
diagonal:  Solving for f15.air1, Initial residual = 0, Final residual = 0, No Iterations 0
diagonal:  Solving for f16.air1, Initial residual = 0, Final residual = 0, No Iterations 0
diagonal:  Solving for f17.air1, Initial residual = 0, Final residual = 0, No Iterations 0
diagonal:  Solving for f18.air1, Initial residual = 0, Final residual = 0, No Iterations 0
diagonal:  Solving for f19.air1, Initial residual = 0, Final residual = 0, No Iterations 0
diagonal:  Solving for f20.air1, Initial residual = 0, Final residual = 0, No Iterations 0
diagonal:  Solving for f21.air1, Initial residual = 0, Final residual = 0, No Iterations 0
diagonal:  Solving for f22.air1, Initial residual = 0, Final residual = 0, No Iterations 0
diagonal:  Solving for f23.air1, Initial residual = 0, Final residual = 0, No Iterations 0
diagonal:  Solving for f24.air1, Initial residual = 0, Final residual = 0, No Iterations 0
diagonal:  Solving for f25.air1, Initial residual = 0, Final residual = 0, No Iterations 0
diagonal:  Solving for f26.air1, Initial residual = 0, Final residual = 0, No Iterations 0
diagonal:  Solving for f27.air1, Initial residual = 0, Final residual = 0, No Iterations 0
diagonal:  Solving for f28.air1, Initial residual = 0, Final residual = 0, No Iterations 0
diagonal:  Solving for f29.air1, Initial residual = 0, Final residual = 0, No Iterations 0
diagonal:  Solving for f30.air1, Initial residual = 0, Final residual = 0, No Iterations 0
diagonal:  Solving for f31.air1, Initial residual = 0, Final residual = 0, No Iterations 0
diagonal:  Solving for f32.air1, Initial residual = 0, Final residual = 0, No Iterations 0
diagonal:  Solving for f33.air1, Initial residual = 0, Final residual = 0, No Iterations 0
diagonal:  Solving for f34.air1, Initial residual = 0, Final residual = 0, No Iterations 0
diagonal:  Solving for f35.air1, Initial residual = 0, Final residual = 0, No Iterations 0
diagonal:  Solving for f36.air1, Initial residual = 0, Final residual = 0, No Iterations 0
diagonal:  Solving for f37.air1, Initial residual = 0, Final residual = 0, No Iterations 0
diagonal:  Solving for f38.air1, Initial residual = 0, Final residual = 0, No Iterations 0
diagonal:  Solving for f39.air1, Initial residual = 0, Final residual = 0, No Iterations 0
diagonal:  Solving for f40.air1, Initial residual = 0, Final residual = 0, No Iterations 0
diagonal:  Solving for f41.air1, Initial residual = 0, Final residual = 0, No Iterations 0
diagonal:  Solving for f42.air1, Initial residual = 0, Final residual = 0, No Iterations 0
diagonal:  Solving for f43.air1, Initial residual = 0, Final residual = 0, No Iterations 0
diagonal:  Solving for f44.air1, Initial residual = 0, Final residual = 0, No Iterations 0
diagonal:  Solving for f45.air1, Initial residual = 0, Final residual = 0, No Iterations 0
diagonal:  Solving for f46.air1, Initial residual = 0, Final residual = 0, No Iterations 0
diagonal:  Solving for f47.air2, Initial residual = 0, Final residual = 0, No Iterations 0
diagonal:  Solving for f48.air2, Initial residual = 0, Final residual = 0, No Iterations 0
diagonal:  Solving for f49.air2, Initial residual = 0, Final residual = 0, No Iterations 0
diagonal:  Solving for f50.air2, Initial residual = 0, Final residual = 0, No Iterations 0
diagonal:  Solving for f51.air2, Initial residual = 0, Final residual = 0, No Iterations 0
diagonal:  Solving for f52.air2, Initial residual = 0, Final residual = 0, No Iterations 0
diagonal:  Solving for f53.air2, Initial residual = 0, Final residual = 0, No Iterations 0
diagonal:  Solving for f54.air2, Initial residual = 0, Final residual = 0, No Iterations 0
diagonal:  Solving for f55.air2, Initial residual = 0, Final residual = 0, No Iterations 0
diagonal:  Solving for f56.air3, Initial residual = 0, Final residual = 0, No Iterations 0
diagonal:  Solving for f57.air3, Initial residual = 0, Final residual = 0, No Iterations 0
diagonal:  Solving for f58.air3, Initial residual = 0, Final residual = 0, No Iterations 0
diagonal:  Solving for f59.air3, Initial residual = 0, Final residual = 0, No Iterations 0
diagonal:  Solving for f60.air3, Initial residual = 0, Final residual = 0, No Iterations 0
diagonal:  Solving for f61.air3, Initial residual = 0, Final residual = 0, No Iterations 0
diagonal:  Solving for f62.air3, Initial residual = 0, Final residual = 0, No Iterations 0
diagonal:  Solving for f63.air3, Initial residual = 0, Final residual = 0, No Iterations 0
diagonal:  Solving for f64.air3, Initial residual = 0, Final residual = 0, No Iterations 0
diagonal:  Solving for f65.air3, Initial residual = 0, Final residual = 0, No Iterations 0
diagonal:  Solving for f66.air3, Initial residual = 0, Final residual = 0, No Iterations 0
diagonal:  Solving for f67.air3, Initial residual = 0, Final residual = 0, No Iterations 0
diagonal:  Solving for f68.air3, Initial residual = 0, Final residual = 0, No Iterations 0
diagonal:  Solving for f69.air3, Initial residual = 0, Final residual = 0, No Iterations 0
diagonal:  Solving for f70.air3, Initial residual = 0, Final residual = 0, No Iterations 0
bubbles sizeGroup phase fraction first, last = 3.36629e-12 0
air1 sizeGroups-sum volume fraction, min, max = 1 1 1
air1 Sauter mean diameter, min, max = 0.496678 0.496678 0.496678
air2 sizeGroups-sum volume fraction, min, max = 1 1 1
air2 Sauter mean diameter, min, max = 0.885847 0.885847 0.885847
air3 sizeGroups-sum volume fraction, min, max = 1 1 1
air3 Sauter mean diameter, min, max = 1.70521 1.70521 1.70521
Constructing momentum equations
diagonal:  Solving for p_rgh, Initial residual = 0, Final residual = 0, No Iterations 0
Time = 1.4s

ExecutionTime = 4.16402 s  ClockTime = 6 s

Courant Number mean: 0 max: 0
MULES: Solving for alpha.air1
MULES: Solving for alpha.air2
MULES: Solving for alpha.air3
MULES: Solving for alpha.water
air1 fraction, min, max = 0.0538498 0.0538498 0.0538498
air2 fraction, min, max = 0.000235487 0.000235487 0.000235487
air3 fraction, min, max = 8.92253e-25 8.92253e-25 8.92253e-25
water fraction, min, max = 0.945915 0.945915 0.945915
Phase-sum volume fraction, min, max = 1 1 1
populationBalance bubbles: Iteration 1
diagonal:  Solving for f0.air1, Initial residual = 0, Final residual = 0, No Iterations 0
diagonal:  Solving for f1.air1, Initial residual = 0, Final residual = 0, No Iterations 0
diagonal:  Solving for f2.air1, Initial residual = 0, Final residual = 0, No Iterations 0
diagonal:  Solving for f3.air1, Initial residual = 0, Final residual = 0, No Iterations 0
diagonal:  Solving for f4.air1, Initial residual = 0, Final residual = 0, No Iterations 0
diagonal:  Solving for f5.air1, Initial residual = 0, Final residual = 0, No Iterations 0
diagonal:  Solving for f6.air1, Initial residual = 0, Final residual = 0, No Iterations 0
diagonal:  Solving for f7.air1, Initial residual = 0, Final residual = 0, No Iterations 0
diagonal:  Solving for f8.air1, Initial residual = 0, Final residual = 0, No Iterations 0
diagonal:  Solving for f9.air1, Initial residual = 0, Final residual = 0, No Iterations 0
diagonal:  Solving for f10.air1, Initial residual = 0, Final residual = 0, No Iterations 0
diagonal:  Solving for f11.air1, Initial residual = 0, Final residual = 0, No Iterations 0
diagonal:  Solving for f12.air1, Initial residual = 0, Final residual = 0, No Iterations 0
diagonal:  Solving for f13.air1, Initial residual = 0, Final residual = 0, No Iterations 0
diagonal:  Solving for f14.air1, Initial residual = 0, Final residual = 0, No Iterations 0
diagonal:  Solving for f15.air1, Initial residual = 0, Final residual = 0, No Iterations 0
diagonal:  Solving for f16.air1, Initial residual = 0, Final residual = 0, No Iterations 0
diagonal:  Solving for f17.air1, Initial residual = 0, Final residual = 0, No Iterations 0
diagonal:  Solving for f18.air1, Initial residual = 0, Final residual = 0, No Iterations 0
diagonal:  Solving for f19.air1, Initial residual = 0, Final residual = 0, No Iterations 0
diagonal:  Solving for f20.air1, Initial residual = 0, Final residual = 0, No Iterations 0
diagonal:  Solving for f21.air1, Initial residual = 0, Final residual = 0, No Iterations 0
diagonal:  Solving for f22.air1, Initial residual = 0, Final residual = 0, No Iterations 0
diagonal:  Solving for f23.air1, Initial residual = 0, Final residual = 0, No Iterations 0
diagonal:  Solving for f24.air1, Initial residual = 0, Final residual = 0, No Iterations 0
diagonal:  Solving for f25.air1, Initial residual = 0, Final residual = 0, No Iterations 0
diagonal:  Solving for f26.air1, Initial residual = 0, Final residual = 0, No Iterations 0
diagonal:  Solving for f27.air1, Initial residual = 0, Final residual = 0, No Iterations 0
diagonal:  Solving for f28.air1, Initial residual = 0, Final residual = 0, No Iterations 0
diagonal:  Solving for f29.air1, Initial residual = 0, Final residual = 0, No Iterations 0
diagonal:  Solving for f30.air1, Initial residual = 0, Final residual = 0, No Iterations 0
diagonal:  Solving for f31.air1, Initial residual = 0, Final residual = 0, No Iterations 0
diagonal:  Solving for f32.air1, Initial residual = 0, Final residual = 0, No Iterations 0
diagonal:  Solving for f33.air1, Initial residual = 0, Final residual = 0, No Iterations 0
diagonal:  Solving for f34.air1, Initial residual = 0, Final residual = 0, No Iterations 0
diagonal:  Solving for f35.air1, Initial residual = 0, Final residual = 0, No Iterations 0
diagonal:  Solving for f36.air1, Initial residual = 0, Final residual = 0, No Iterations 0
diagonal:  Solving for f37.air1, Initial residual = 0, Final residual = 0, No Iterations 0
diagonal:  Solving for f38.air1, Initial residual = 0, Final residual = 0, No Iterations 0
diagonal:  Solving for f39.air1, Initial residual = 0, Final residual = 0, No Iterations 0
diagonal:  Solving for f40.air1, Initial residual = 0, Final residual = 0, No Iterations 0
diagonal:  Solving for f41.air1, Initial residual = 0, Final residual = 0, No Iterations 0
diagonal:  Solving for f42.air1, Initial residual = 0, Final residual = 0, No Iterations 0
diagonal:  Solving for f43.air1, Initial residual = 0, Final residual = 0, No Iterations 0
diagonal:  Solving for f44.air1, Initial residual = 0, Final residual = 0, No Iterations 0
diagonal:  Solving for f45.air1, Initial residual = 0, Final residual = 0, No Iterations 0
diagonal:  Solving for f46.air1, Initial residual = 0, Final residual = 0, No Iterations 0
diagonal:  Solving for f47.air2, Initial residual = 0, Final residual = 0, No Iterations 0
diagonal:  Solving for f48.air2, Initial residual = 0, Final residual = 0, No Iterations 0
diagonal:  Solving for f49.air2, Initial residual = 0, Final residual = 0, No Iterations 0
diagonal:  Solving for f50.air2, Initial residual = 0, Final residual = 0, No Iterations 0
diagonal:  Solving for f51.air2, Initial residual = 0, Final residual = 0, No Iterations 0
diagonal:  Solving for f52.air2, Initial residual = 0, Final residual = 0, No Iterations 0
diagonal:  Solving for f53.air2, Initial residual = 0, Final residual = 0, No Iterations 0
diagonal:  Solving for f54.air2, Initial residual = 0, Final residual = 0, No Iterations 0
diagonal:  Solving for f55.air2, Initial residual = 0, Final residual = 0, No Iterations 0
diagonal:  Solving for f56.air3, Initial residual = 0, Final residual = 0, No Iterations 0
diagonal:  Solving for f57.air3, Initial residual = 0, Final residual = 0, No Iterations 0
diagonal:  Solving for f58.air3, Initial residual = 0, Final residual = 0, No Iterations 0
diagonal:  Solving for f59.air3, Initial residual = 0, Final residual = 0, No Iterations 0
diagonal:  Solving for f60.air3, Initial residual = 0, Final residual = 0, No Iterations 0
diagonal:  Solving for f61.air3, Initial residual = 0, Final residual = 0, No Iterations 0
diagonal:  Solving for f62.air3, Initial residual = 0, Final residual = 0, No Iterations 0
diagonal:  Solving for f63.air3, Initial residual = 0, Final residual = 0, No Iterations 0
diagonal:  Solving for f64.air3, Initial residual = 0, Final residual = 0, No Iterations 0
diagonal:  Solving for f65.air3, Initial residual = 0, Final residual = 0, No Iterations 0
diagonal:  Solving for f66.air3, Initial residual = 0, Final residual = 0, No Iterations 0
diagonal:  Solving for f67.air3, Initial residual = 0, Final residual = 0, No Iterations 0
diagonal:  Solving for f68.air3, Initial residual = 0, Final residual = 0, No Iterations 0
diagonal:  Solving for f69.air3, Initial residual = 0, Final residual = 0, No Iterations 0
diagonal:  Solving for f70.air3, Initial residual = 0, Final residual = 0, No Iterations 0
bubbles sizeGroup phase fraction first, last = 2.79423e-12 0
air1 sizeGroups-sum volume fraction, min, max = 1 1 1
air1 Sauter mean diameter, min, max = 0.511628 0.511628 0.511628
air2 sizeGroups-sum volume fraction, min, max = 1 1 1
air2 Sauter mean diameter, min, max = 0.889736 0.889736 0.889736
air3 sizeGroups-sum volume fraction, min, max = 1 1 1
air3 Sauter mean diameter, min, max = 1.70521 1.70521 1.70521
Constructing momentum equations
diagonal:  Solving for p_rgh, Initial residual = 0, Final residual = 0, No Iterations 0
Time = 1.6s

ExecutionTime = 4.67819 s  ClockTime = 7 s

Courant Number mean: 0 max: 0
MULES: Solving for alpha.air1
MULES: Solving for alpha.air2
MULES: Solving for alpha.air3
MULES: Solving for alpha.water
air1 fraction, min, max = 0.0535937 0.0535937 0.0535937
air2 fraction, min, max = 0.000492668 0.000492668 0.000492668
air3 fraction, min, max = 3.13209e-21 3.13209e-21 3.13209e-21
water fraction, min, max = 0.945915 0.945915 0.945915
Phase-sum volume fraction, min, max = 1 1 1
populationBalance bubbles: Iteration 1
diagonal:  Solving for f0.air1, Initial residual = 0, Final residual = 0, No Iterations 0
diagonal:  Solving for f1.air1, Initial residual = 0, Final residual = 0, No Iterations 0
diagonal:  Solving for f2.air1, Initial residual = 0, Final residual = 0, No Iterations 0
diagonal:  Solving for f3.air1, Initial residual = 0, Final residual = 0, No Iterations 0
diagonal:  Solving for f4.air1, Initial residual = 0, Final residual = 0, No Iterations 0
diagonal:  Solving for f5.air1, Initial residual = 0, Final residual = 0, No Iterations 0
diagonal:  Solving for f6.air1, Initial residual = 0, Final residual = 0, No Iterations 0
diagonal:  Solving for f7.air1, Initial residual = 0, Final residual = 0, No Iterations 0
diagonal:  Solving for f8.air1, Initial residual = 0, Final residual = 0, No Iterations 0
diagonal:  Solving for f9.air1, Initial residual = 0, Final residual = 0, No Iterations 0
diagonal:  Solving for f10.air1, Initial residual = 0, Final residual = 0, No Iterations 0
diagonal:  Solving for f11.air1, Initial residual = 0, Final residual = 0, No Iterations 0
diagonal:  Solving for f12.air1, Initial residual = 0, Final residual = 0, No Iterations 0
diagonal:  Solving for f13.air1, Initial residual = 0, Final residual = 0, No Iterations 0
diagonal:  Solving for f14.air1, Initial residual = 0, Final residual = 0, No Iterations 0
diagonal:  Solving for f15.air1, Initial residual = 0, Final residual = 0, No Iterations 0
diagonal:  Solving for f16.air1, Initial residual = 0, Final residual = 0, No Iterations 0
diagonal:  Solving for f17.air1, Initial residual = 0, Final residual = 0, No Iterations 0
diagonal:  Solving for f18.air1, Initial residual = 0, Final residual = 0, No Iterations 0
diagonal:  Solving for f19.air1, Initial residual = 0, Final residual = 0, No Iterations 0
diagonal:  Solving for f20.air1, Initial residual = 0, Final residual = 0, No Iterations 0
diagonal:  Solving for f21.air1, Initial residual = 0, Final residual = 0, No Iterations 0
diagonal:  Solving for f22.air1, Initial residual = 0, Final residual = 0, No Iterations 0
diagonal:  Solving for f23.air1, Initial residual = 0, Final residual = 0, No Iterations 0
diagonal:  Solving for f24.air1, Initial residual = 0, Final residual = 0, No Iterations 0
diagonal:  Solving for f25.air1, Initial residual = 0, Final residual = 0, No Iterations 0
diagonal:  Solving for f26.air1, Initial residual = 0, Final residual = 0, No Iterations 0
diagonal:  Solving for f27.air1, Initial residual = 0, Final residual = 0, No Iterations 0
diagonal:  Solving for f28.air1, Initial residual = 0, Final residual = 0, No Iterations 0
diagonal:  Solving for f29.air1, Initial residual = 0, Final residual = 0, No Iterations 0
diagonal:  Solving for f30.air1, Initial residual = 0, Final residual = 0, No Iterations 0
diagonal:  Solving for f31.air1, Initial residual = 0, Final residual = 0, No Iterations 0
diagonal:  Solving for f32.air1, Initial residual = 0, Final residual = 0, No Iterations 0
diagonal:  Solving for f33.air1, Initial residual = 0, Final residual = 0, No Iterations 0
diagonal:  Solving for f34.air1, Initial residual = 0, Final residual = 0, No Iterations 0
diagonal:  Solving for f35.air1, Initial residual = 0, Final residual = 0, No Iterations 0
diagonal:  Solving for f36.air1, Initial residual = 0, Final residual = 0, No Iterations 0
diagonal:  Solving for f37.air1, Initial residual = 0, Final residual = 0, No Iterations 0
diagonal:  Solving for f38.air1, Initial residual = 0, Final residual = 0, No Iterations 0
diagonal:  Solving for f39.air1, Initial residual = 0, Final residual = 0, No Iterations 0
diagonal:  Solving for f40.air1, Initial residual = 0, Final residual = 0, No Iterations 0
diagonal:  Solving for f41.air1, Initial residual = 0, Final residual = 0, No Iterations 0
diagonal:  Solving for f42.air1, Initial residual = 0, Final residual = 0, No Iterations 0
diagonal:  Solving for f43.air1, Initial residual = 0, Final residual = 0, No Iterations 0
diagonal:  Solving for f44.air1, Initial residual = 0, Final residual = 0, No Iterations 0
diagonal:  Solving for f45.air1, Initial residual = 0, Final residual = 0, No Iterations 0
diagonal:  Solving for f46.air1, Initial residual = 0, Final residual = 0, No Iterations 0
diagonal:  Solving for f47.air2, Initial residual = 0, Final residual = 0, No Iterations 0
diagonal:  Solving for f48.air2, Initial residual = 0, Final residual = 0, No Iterations 0
diagonal:  Solving for f49.air2, Initial residual = 0, Final residual = 0, No Iterations 0
diagonal:  Solving for f50.air2, Initial residual = 0, Final residual = 0, No Iterations 0
diagonal:  Solving for f51.air2, Initial residual = 0, Final residual = 0, No Iterations 0
diagonal:  Solving for f52.air2, Initial residual = 0, Final residual = 0, No Iterations 0
diagonal:  Solving for f53.air2, Initial residual = 0, Final residual = 0, No Iterations 0
diagonal:  Solving for f54.air2, Initial residual = 0, Final residual = 0, No Iterations 0
diagonal:  Solving for f55.air2, Initial residual = 0, Final residual = 0, No Iterations 0
diagonal:  Solving for f56.air3, Initial residual = 0, Final residual = 0, No Iterations 0
diagonal:  Solving for f57.air3, Initial residual = 0, Final residual = 0, No Iterations 0
diagonal:  Solving for f58.air3, Initial residual = 0, Final residual = 0, No Iterations 0
diagonal:  Solving for f59.air3, Initial residual = 0, Final residual = 0, No Iterations 0
diagonal:  Solving for f60.air3, Initial residual = 0, Final residual = 0, No Iterations 0
diagonal:  Solving for f61.air3, Initial residual = 0, Final residual = 0, No Iterations 0
diagonal:  Solving for f62.air3, Initial residual = 0, Final residual = 0, No Iterations 0
diagonal:  Solving for f63.air3, Initial residual = 0, Final residual = 0, No Iterations 0
diagonal:  Solving for f64.air3, Initial residual = 0, Final residual = 0, No Iterations 0
diagonal:  Solving for f65.air3, Initial residual = 0, Final residual = 0, No Iterations 0
diagonal:  Solving for f66.air3, Initial residual = 0, Final residual = 0, No Iterations 0
diagonal:  Solving for f67.air3, Initial residual = 0, Final residual = 0, No Iterations 0
diagonal:  Solving for f68.air3, Initial residual = 0, Final residual = 0, No Iterations 0
diagonal:  Solving for f69.air3, Initial residual = 0, Final residual = 0, No Iterations 0
diagonal:  Solving for f70.air3, Initial residual = 0, Final residual = 0, No Iterations 0
bubbles sizeGroup phase fraction first, last = 2.35517e-12 0
air1 sizeGroups-sum volume fraction, min, max = 1 1 1
air1 Sauter mean diameter, min, max = 0.525321 0.525321 0.525321
air2 sizeGroups-sum volume fraction, min, max = 1 1 1
air2 Sauter mean diameter, min, max = 0.893768 0.893768 0.893768
air3 sizeGroups-sum volume fraction, min, max = 1 1 1
air3 Sauter mean diameter, min, max = 1.70521 1.70521 1.70521
Constructing momentum equations
diagonal:  Solving for p_rgh, Initial residual = 0, Final residual = 0, No Iterations 0
Time = 1.8s

ExecutionTime = 5.21566 s  ClockTime = 8 s

Courant Number mean: 0 max: 0
MULES: Solving for alpha.air1
MULES: Solving for alpha.air2
MULES: Solving for alpha.air3
MULES: Solving for alpha.water
air1 fraction, min, max = 0.0532015 0.0532015 0.0532015
air2 fraction, min, max = 0.000887606 0.000887606 0.000887606
air3 fraction, min, max = 1.27366e-18 1.27366e-18 1.27366e-18
water fraction, min, max = 0.945914 0.945914 0.945914
Phase-sum volume fraction, min, max = 1 1 1
populationBalance bubbles: Iteration 1
diagonal:  Solving for f0.air1, Initial residual = 0, Final residual = 0, No Iterations 0
diagonal:  Solving for f1.air1, Initial residual = 0, Final residual = 0, No Iterations 0
diagonal:  Solving for f2.air1, Initial residual = 0, Final residual = 0, No Iterations 0
diagonal:  Solving for f3.air1, Initial residual = 0, Final residual = 0, No Iterations 0
diagonal:  Solving for f4.air1, Initial residual = 0, Final residual = 0, No Iterations 0
diagonal:  Solving for f5.air1, Initial residual = 0, Final residual = 0, No Iterations 0
diagonal:  Solving for f6.air1, Initial residual = 0, Final residual = 0, No Iterations 0
diagonal:  Solving for f7.air1, Initial residual = 0, Final residual = 0, No Iterations 0
diagonal:  Solving for f8.air1, Initial residual = 0, Final residual = 0, No Iterations 0
diagonal:  Solving for f9.air1, Initial residual = 0, Final residual = 0, No Iterations 0
diagonal:  Solving for f10.air1, Initial residual = 0, Final residual = 0, No Iterations 0
diagonal:  Solving for f11.air1, Initial residual = 0, Final residual = 0, No Iterations 0
diagonal:  Solving for f12.air1, Initial residual = 0, Final residual = 0, No Iterations 0
diagonal:  Solving for f13.air1, Initial residual = 0, Final residual = 0, No Iterations 0
diagonal:  Solving for f14.air1, Initial residual = 0, Final residual = 0, No Iterations 0
diagonal:  Solving for f15.air1, Initial residual = 0, Final residual = 0, No Iterations 0
diagonal:  Solving for f16.air1, Initial residual = 0, Final residual = 0, No Iterations 0
diagonal:  Solving for f17.air1, Initial residual = 0, Final residual = 0, No Iterations 0
diagonal:  Solving for f18.air1, Initial residual = 0, Final residual = 0, No Iterations 0
diagonal:  Solving for f19.air1, Initial residual = 0, Final residual = 0, No Iterations 0
diagonal:  Solving for f20.air1, Initial residual = 0, Final residual = 0, No Iterations 0
diagonal:  Solving for f21.air1, Initial residual = 0, Final residual = 0, No Iterations 0
diagonal:  Solving for f22.air1, Initial residual = 0, Final residual = 0, No Iterations 0
diagonal:  Solving for f23.air1, Initial residual = 0, Final residual = 0, No Iterations 0
diagonal:  Solving for f24.air1, Initial residual = 0, Final residual = 0, No Iterations 0
diagonal:  Solving for f25.air1, Initial residual = 0, Final residual = 0, No Iterations 0
diagonal:  Solving for f26.air1, Initial residual = 0, Final residual = 0, No Iterations 0
diagonal:  Solving for f27.air1, Initial residual = 0, Final residual = 0, No Iterations 0
diagonal:  Solving for f28.air1, Initial residual = 0, Final residual = 0, No Iterations 0
diagonal:  Solving for f29.air1, Initial residual = 0, Final residual = 0, No Iterations 0
diagonal:  Solving for f30.air1, Initial residual = 0, Final residual = 0, No Iterations 0
diagonal:  Solving for f31.air1, Initial residual = 0, Final residual = 0, No Iterations 0
diagonal:  Solving for f32.air1, Initial residual = 0, Final residual = 0, No Iterations 0
diagonal:  Solving for f33.air1, Initial residual = 0, Final residual = 0, No Iterations 0
diagonal:  Solving for f34.air1, Initial residual = 0, Final residual = 0, No Iterations 0
diagonal:  Solving for f35.air1, Initial residual = 0, Final residual = 0, No Iterations 0
diagonal:  Solving for f36.air1, Initial residual = 0, Final residual = 0, No Iterations 0
diagonal:  Solving for f37.air1, Initial residual = 0, Final residual = 0, No Iterations 0
diagonal:  Solving for f38.air1, Initial residual = 0, Final residual = 0, No Iterations 0
diagonal:  Solving for f39.air1, Initial residual = 0, Final residual = 0, No Iterations 0
diagonal:  Solving for f40.air1, Initial residual = 0, Final residual = 0, No Iterations 0
diagonal:  Solving for f41.air1, Initial residual = 0, Final residual = 0, No Iterations 0
diagonal:  Solving for f42.air1, Initial residual = 0, Final residual = 0, No Iterations 0
diagonal:  Solving for f43.air1, Initial residual = 0, Final residual = 0, No Iterations 0
diagonal:  Solving for f44.air1, Initial residual = 0, Final residual = 0, No Iterations 0
diagonal:  Solving for f45.air1, Initial residual = 0, Final residual = 0, No Iterations 0
diagonal:  Solving for f46.air1, Initial residual = 0, Final residual = 0, No Iterations 0
diagonal:  Solving for f47.air2, Initial residual = 0, Final residual = 0, No Iterations 0
diagonal:  Solving for f48.air2, Initial residual = 0, Final residual = 0, No Iterations 0
diagonal:  Solving for f49.air2, Initial residual = 0, Final residual = 0, No Iterations 0
diagonal:  Solving for f50.air2, Initial residual = 0, Final residual = 0, No Iterations 0
diagonal:  Solving for f51.air2, Initial residual = 0, Final residual = 0, No Iterations 0
diagonal:  Solving for f52.air2, Initial residual = 0, Final residual = 0, No Iterations 0
diagonal:  Solving for f53.air2, Initial residual = 0, Final residual = 0, No Iterations 0
diagonal:  Solving for f54.air2, Initial residual = 0, Final residual = 0, No Iterations 0
diagonal:  Solving for f55.air2, Initial residual = 0, Final residual = 0, No Iterations 0
diagonal:  Solving for f56.air3, Initial residual = 0, Final residual = 0, No Iterations 0
diagonal:  Solving for f57.air3, Initial residual = 0, Final residual = 0, No Iterations 0
diagonal:  Solving for f58.air3, Initial residual = 0, Final residual = 0, No Iterations 0
diagonal:  Solving for f59.air3, Initial residual = 0, Final residual = 0, No Iterations 0
diagonal:  Solving for f60.air3, Initial residual = 0, Final residual = 0, No Iterations 0
diagonal:  Solving for f61.air3, Initial residual = 0, Final residual = 0, No Iterations 0
diagonal:  Solving for f62.air3, Initial residual = 0, Final residual = 0, No Iterations 0
diagonal:  Solving for f63.air3, Initial residual = 0, Final residual = 0, No Iterations 0
diagonal:  Solving for f64.air3, Initial residual = 0, Final residual = 0, No Iterations 0
diagonal:  Solving for f65.air3, Initial residual = 0, Final residual = 0, No Iterations 0
diagonal:  Solving for f66.air3, Initial residual = 0, Final residual = 0, No Iterations 0
diagonal:  Solving for f67.air3, Initial residual = 0, Final residual = 0, No Iterations 0
diagonal:  Solving for f68.air3, Initial residual = 0, Final residual = 0, No Iterations 0
diagonal:  Solving for f69.air3, Initial residual = 0, Final residual = 0, No Iterations 0
diagonal:  Solving for f70.air3, Initial residual = 0, Final residual = 0, No Iterations 0
bubbles sizeGroup phase fraction first, last = 2.0112e-12 0
air1 sizeGroups-sum volume fraction, min, max = 1 1 1
air1 Sauter mean diameter, min, max = 0.537782 0.537782 0.537782
air2 sizeGroups-sum volume fraction, min, max = 1 1 1
air2 Sauter mean diameter, min, max = 0.897891 0.897891 0.897891
air3 sizeGroups-sum volume fraction, min, max = 1 1 1
air3 Sauter mean diameter, min, max = 1.70521 1.70521 1.70521
Constructing momentum equations
diagonal:  Solving for p_rgh, Initial residual = 0, Final residual = 0, No Iterations 0
Time = 2s

ExecutionTime = 5.66765 s  ClockTime = 8 s

Courant Number mean: 0 max: 0
MULES: Solving for alpha.air1
MULES: Solving for alpha.air2
MULES: Solving for alpha.air3
MULES: Solving for alpha.water
air1 fraction, min, max = 0.0526622 0.0526622 0.0526622
air2 fraction, min, max = 0.00143188 0.00143188 0.00143188
air3 fraction, min, max = 1.14103e-16 1.14103e-16 1.14103e-16
water fraction, min, max = 0.945911 0.945911 0.945911
Phase-sum volume fraction, min, max = 1.00001 1.00001 1.00001
populationBalance bubbles: Iteration 1
diagonal:  Solving for f0.air1, Initial residual = 0, Final residual = 0, No Iterations 0
diagonal:  Solving for f1.air1, Initial residual = 0, Final residual = 0, No Iterations 0
diagonal:  Solving for f2.air1, Initial residual = 0, Final residual = 0, No Iterations 0
diagonal:  Solving for f3.air1, Initial residual = 0, Final residual = 0, No Iterations 0
diagonal:  Solving for f4.air1, Initial residual = 0, Final residual = 0, No Iterations 0
diagonal:  Solving for f5.air1, Initial residual = 0, Final residual = 0, No Iterations 0
diagonal:  Solving for f6.air1, Initial residual = 0, Final residual = 0, No Iterations 0
diagonal:  Solving for f7.air1, Initial residual = 0, Final residual = 0, No Iterations 0
diagonal:  Solving for f8.air1, Initial residual = 0, Final residual = 0, No Iterations 0
diagonal:  Solving for f9.air1, Initial residual = 0, Final residual = 0, No Iterations 0
diagonal:  Solving for f10.air1, Initial residual = 0, Final residual = 0, No Iterations 0
diagonal:  Solving for f11.air1, Initial residual = 0, Final residual = 0, No Iterations 0
[...]
diagonal:  Solving for f24.air1, Initial residual = 0, Final residual = 0, No Iterations 0
diagonal:  Solving for f25.air1, Initial residual = 0, Final residual = 0, No Iterations 0
diagonal:  Solving for f26.air1, Initial residual = 0, Final residual = 0, No Iterations 0
diagonal:  Solving for f27.air1, Initial residual = 0, Final residual = 0, No Iterations 0
diagonal:  Solving for f28.air1, Initial residual = 0, Final residual = 0, No Iterations 0
diagonal:  Solving for f29.air1, Initial residual = 0, Final residual = 0, No Iterations 0
diagonal:  Solving for f30.air1, Initial residual = 0, Final residual = 0, No Iterations 0
diagonal:  Solving for f31.air1, Initial residual = 0, Final residual = 0, No Iterations 0
diagonal:  Solving for f32.air1, Initial residual = 0, Final residual = 0, No Iterations 0
diagonal:  Solving for f33.air1, Initial residual = 0, Final residual = 0, No Iterations 0
diagonal:  Solving for f34.air1, Initial residual = 0, Final residual = 0, No Iterations 0
diagonal:  Solving for f35.air1, Initial residual = 0, Final residual = 0, No Iterations 0
diagonal:  Solving for f36.air1, Initial residual = 0, Final residual = 0, No Iterations 0
diagonal:  Solving for f37.air1, Initial residual = 0, Final residual = 0, No Iterations 0
diagonal:  Solving for f38.air1, Initial residual = 0, Final residual = 0, No Iterations 0
diagonal:  Solving for f39.air1, Initial residual = 0, Final residual = 0, No Iterations 0
diagonal:  Solving for f40.air1, Initial residual = 0, Final residual = 0, No Iterations 0
diagonal:  Solving for f41.air1, Initial residual = 0, Final residual = 0, No Iterations 0
diagonal:  Solving for f42.air1, Initial residual = 0, Final residual = 0, No Iterations 0
diagonal:  Solving for f43.air1, Initial residual = 0, Final residual = 0, No Iterations 0
diagonal:  Solving for f44.air1, Initial residual = 0, Final residual = 0, No Iterations 0
diagonal:  Solving for f45.air1, Initial residual = 0, Final residual = 0, No Iterations 0
diagonal:  Solving for f46.air1, Initial residual = 0, Final residual = 0, No Iterations 0
diagonal:  Solving for f47.air2, Initial residual = 0, Final residual = 0, No Iterations 0
diagonal:  Solving for f48.air2, Initial residual = 0, Final residual = 0, No Iterations 0
diagonal:  Solving for f49.air2, Initial residual = 0, Final residual = 0, No Iterations 0
diagonal:  Solving for f50.air2, Initial residual = 0, Final residual = 0, No Iterations 0
diagonal:  Solving for f51.air2, Initial residual = 0, Final residual = 0, No Iterations 0
diagonal:  Solving for f52.air2, Initial residual = 0, Final residual = 0, No Iterations 0
diagonal:  Solving for f53.air2, Initial residual = 0, Final residual = 0, No Iterations 0
diagonal:  Solving for f54.air2, Initial residual = 0, Final residual = 0, No Iterations 0
diagonal:  Solving for f55.air2, Initial residual = 0, Final residual = 0, No Iterations 0
diagonal:  Solving for f56.air3, Initial residual = 0, Final residual = 0, No Iterations 0
diagonal:  Solving for f57.air3, Initial residual = 0, Final residual = 0, No Iterations 0
diagonal:  Solving for f58.air3, Initial residual = 0, Final residual = 0, No Iterations 0
diagonal:  Solving for f59.air3, Initial residual = 0, Final residual = 0, No Iterations 0
diagonal:  Solving for f60.air3, Initial residual = 0, Final residual = 0, No Iterations 0
diagonal:  Solving for f61.air3, Initial residual = 0, Final residual = 0, No Iterations 0
diagonal:  Solving for f62.air3, Initial residual = 0, Final residual = 0, No Iterations 0
diagonal:  Solving for f63.air3, Initial residual = 0, Final residual = 0, No Iterations 0
diagonal:  Solving for f64.air3, Initial residual = 0, Final residual = 0, No Iterations 0
diagonal:  Solving for f65.air3, Initial residual = 0, Final residual = 0, No Iterations 0
diagonal:  Solving for f66.air3, Initial residual = 0, Final residual = 0, No Iterations 0
diagonal:  Solving for f67.air3, Initial residual = 0, Final residual = 0, No Iterations 0
diagonal:  Solving for f68.air3, Initial residual = 0, Final residual = 0, No Iterations 0
diagonal:  Solving for f69.air3, Initial residual = 0, Final residual = 0, No Iterations 0
diagonal:  Solving for f70.air3, Initial residual = 0, Final residual = 0, No Iterations 0
bubbles sizeGroup phase fraction first, last = 1.25201e-13 1.69617e-32
air1 sizeGroups-sum volume fraction, min, max = 1 1 1
air1 Sauter mean diameter, min, max = 0.665143 0.665143 0.665143
air2 sizeGroups-sum volume fraction, min, max = 1 1 1
air2 Sauter mean diameter, min, max = 1.05134 1.05134 1.05134
air3 sizeGroups-sum volume fraction, min, max = 1 1 1
air3 Sauter mean diameter, min, max = 1.72933 1.72933 1.72933
Constructing momentum equations
diagonal:  Solving for p_rgh, Initial residual = 0, Final residual = 0, No Iterations 0
Time = 9.6s

ExecutionTime = 29.0387 s  ClockTime = 42 s

Courant Number mean: 0 max: 0
MULES: Solving for alpha.air1
MULES: Solving for alpha.air2
MULES: Solving for alpha.air3
MULES: Solving for alpha.water
air1 fraction, min, max = 0.0181839 0.0181839 0.0181839
air2 fraction, min, max = 0.0367005 0.0367005 0.0367005
air3 fraction, min, max = 0.000105845 0.000105845 0.000105845
water fraction, min, max = 0.945023 0.945023 0.945023
Phase-sum volume fraction, min, max = 1.00001 1.00001 1.00001
populationBalance bubbles: Iteration 1
diagonal:  Solving for f0.air1, Initial residual = 0, Final residual = 0, No Iterations 0
diagonal:  Solving for f1.air1, Initial residual = 0, Final residual = 0, No Iterations 0
diagonal:  Solving for f2.air1, Initial residual = 0, Final residual = 0, No Iterations 0
diagonal:  Solving for f3.air1, Initial residual = 0, Final residual = 0, No Iterations 0
diagonal:  Solving for f4.air1, Initial residual = 0, Final residual = 0, No Iterations 0
diagonal:  Solving for f5.air1, Initial residual = 0, Final residual = 0, No Iterations 0
diagonal:  Solving for f6.air1, Initial residual = 0, Final residual = 0, No Iterations 0
diagonal:  Solving for f7.air1, Initial residual = 0, Final residual = 0, No Iterations 0
diagonal:  Solving for f8.air1, Initial residual = 0, Final residual = 0, No Iterations 0
diagonal:  Solving for f9.air1, Initial residual = 0, Final residual = 0, No Iterations 0
diagonal:  Solving for f10.air1, Initial residual = 0, Final residual = 0, No Iterations 0
diagonal:  Solving for f11.air1, Initial residual = 0, Final residual = 0, No Iterations 0
diagonal:  Solving for f12.air1, Initial residual = 0, Final residual = 0, No Iterations 0
diagonal:  Solving for f13.air1, Initial residual = 0, Final residual = 0, No Iterations 0
diagonal:  Solving for f14.air1, Initial residual = 0, Final residual = 0, No Iterations 0
diagonal:  Solving for f15.air1, Initial residual = 0, Final residual = 0, No Iterations 0
diagonal:  Solving for f16.air1, Initial residual = 0, Final residual = 0, No Iterations 0
diagonal:  Solving for f17.air1, Initial residual = 0, Final residual = 0, No Iterations 0
diagonal:  Solving for f18.air1, Initial residual = 0, Final residual = 0, No Iterations 0
diagonal:  Solving for f19.air1, Initial residual = 0, Final residual = 0, No Iterations 0
diagonal:  Solving for f20.air1, Initial residual = 0, Final residual = 0, No Iterations 0
diagonal:  Solving for f21.air1, Initial residual = 0, Final residual = 0, No Iterations 0
diagonal:  Solving for f22.air1, Initial residual = 0, Final residual = 0, No Iterations 0
diagonal:  Solving for f23.air1, Initial residual = 0, Final residual = 0, No Iterations 0
diagonal:  Solving for f24.air1, Initial residual = 0, Final residual = 0, No Iterations 0
diagonal:  Solving for f25.air1, Initial residual = 0, Final residual = 0, No Iterations 0
diagonal:  Solving for f26.air1, Initial residual = 0, Final residual = 0, No Iterations 0
diagonal:  Solving for f27.air1, Initial residual = 0, Final residual = 0, No Iterations 0
diagonal:  Solving for f28.air1, Initial residual = 0, Final residual = 0, No Iterations 0
diagonal:  Solving for f29.air1, Initial residual = 0, Final residual = 0, No Iterations 0
diagonal:  Solving for f30.air1, Initial residual = 0, Final residual = 0, No Iterations 0
diagonal:  Solving for f31.air1, Initial residual = 0, Final residual = 0, No Iterations 0
diagonal:  Solving for f32.air1, Initial residual = 0, Final residual = 0, No Iterations 0
diagonal:  Solving for f33.air1, Initial residual = 0, Final residual = 0, No Iterations 0
diagonal:  Solving for f34.air1, Initial residual = 0, Final residual = 0, No Iterations 0
diagonal:  Solving for f35.air1, Initial residual = 0, Final residual = 0, No Iterations 0
diagonal:  Solving for f36.air1, Initial residual = 0, Final residual = 0, No Iterations 0
diagonal:  Solving for f37.air1, Initial residual = 0, Final residual = 0, No Iterations 0
diagonal:  Solving for f38.air1, Initial residual = 0, Final residual = 0, No Iterations 0
diagonal:  Solving for f39.air1, Initial residual = 0, Final residual = 0, No Iterations 0
diagonal:  Solving for f40.air1, Initial residual = 0, Final residual = 0, No Iterations 0
diagonal:  Solving for f41.air1, Initial residual = 0, Final residual = 0, No Iterations 0
diagonal:  Solving for f42.air1, Initial residual = 0, Final residual = 0, No Iterations 0
diagonal:  Solving for f43.air1, Initial residual = 0, Final residual = 0, No Iterations 0
diagonal:  Solving for f44.air1, Initial residual = 0, Final residual = 0, No Iterations 0
diagonal:  Solving for f45.air1, Initial residual = 0, Final residual = 0, No Iterations 0
diagonal:  Solving for f46.air1, Initial residual = 0, Final residual = 0, No Iterations 0
diagonal:  Solving for f47.air2, Initial residual = 0, Final residual = 0, No Iterations 0
diagonal:  Solving for f48.air2, Initial residual = 0, Final residual = 0, No Iterations 0
diagonal:  Solving for f49.air2, Initial residual = 0, Final residual = 0, No Iterations 0
diagonal:  Solving for f50.air2, Initial residual = 0, Final residual = 0, No Iterations 0
diagonal:  Solving for f51.air2, Initial residual = 0, Final residual = 0, No Iterations 0
diagonal:  Solving for f52.air2, Initial residual = 0, Final residual = 0, No Iterations 0
diagonal:  Solving for f53.air2, Initial residual = 0, Final residual = 0, No Iterations 0
diagonal:  Solving for f54.air2, Initial residual = 0, Final residual = 0, No Iterations 0
diagonal:  Solving for f55.air2, Initial residual = 0, Final residual = 0, No Iterations 0
diagonal:  Solving for f56.air3, Initial residual = 0, Final residual = 0, No Iterations 0
diagonal:  Solving for f57.air3, Initial residual = 0, Final residual = 0, No Iterations 0
diagonal:  Solving for f58.air3, Initial residual = 0, Final residual = 0, No Iterations 0
diagonal:  Solving for f59.air3, Initial residual = 0, Final residual = 0, No Iterations 0
diagonal:  Solving for f60.air3, Initial residual = 0, Final residual = 0, No Iterations 0
diagonal:  Solving for f61.air3, Initial residual = 0, Final residual = 0, No Iterations 0
diagonal:  Solving for f62.air3, Initial residual = 0, Final residual = 0, No Iterations 0
diagonal:  Solving for f63.air3, Initial residual = 0, Final residual = 0, No Iterations 0
diagonal:  Solving for f64.air3, Initial residual = 0, Final residual = 0, No Iterations 0
diagonal:  Solving for f65.air3, Initial residual = 0, Final residual = 0, No Iterations 0
diagonal:  Solving for f66.air3, Initial residual = 0, Final residual = 0, No Iterations 0
diagonal:  Solving for f67.air3, Initial residual = 0, Final residual = 0, No Iterations 0
diagonal:  Solving for f68.air3, Initial residual = 0, Final residual = 0, No Iterations 0
diagonal:  Solving for f69.air3, Initial residual = 0, Final residual = 0, No Iterations 0
diagonal:  Solving for f70.air3, Initial residual = 0, Final residual = 0, No Iterations 0
bubbles sizeGroup phase fraction first, last = 1.20289e-13 4.25819e-32
air1 sizeGroups-sum volume fraction, min, max = 1 1 1
air1 Sauter mean diameter, min, max = 0.665912 0.665912 0.665912
air2 sizeGroups-sum volume fraction, min, max = 1 1 1
air2 Sauter mean diameter, min, max = 1.05489 1.05489 1.05489
air3 sizeGroups-sum volume fraction, min, max = 1 1 1
air3 Sauter mean diameter, min, max = 1.73031 1.73031 1.73031
Constructing momentum equations
diagonal:  Solving for p_rgh, Initial residual = 0, Final residual = 0, No Iterations 0
Time = 9.8s

ExecutionTime = 29.5351 s  ClockTime = 43 s

Courant Number mean: 0 max: 0
MULES: Solving for alpha.air1
MULES: Solving for alpha.air2
MULES: Solving for alpha.air3
MULES: Solving for alpha.water
air1 fraction, min, max = 0.0177063 0.0177063 0.0177063
air2 fraction, min, max = 0.0371729 0.0371729 0.0371729
air3 fraction, min, max = 0.000122867 0.000122867 0.000122867
water fraction, min, max = 0.945011 0.945011 0.945011
Phase-sum volume fraction, min, max = 1.00001 1.00001 1.00001
populationBalance bubbles: Iteration 1
diagonal:  Solving for f0.air1, Initial residual = 0, Final residual = 0, No Iterations 0
diagonal:  Solving for f1.air1, Initial residual = 0, Final residual = 0, No Iterations 0
diagonal:  Solving for f2.air1, Initial residual = 0, Final residual = 0, No Iterations 0
diagonal:  Solving for f3.air1, Initial residual = 0, Final residual = 0, No Iterations 0
diagonal:  Solving for f4.air1, Initial residual = 0, Final residual = 0, No Iterations 0
diagonal:  Solving for f5.air1, Initial residual = 0, Final residual = 0, No Iterations 0
diagonal:  Solving for f6.air1, Initial residual = 0, Final residual = 0, No Iterations 0
diagonal:  Solving for f7.air1, Initial residual = 0, Final residual = 0, No Iterations 0
diagonal:  Solving for f8.air1, Initial residual = 0, Final residual = 0, No Iterations 0
diagonal:  Solving for f9.air1, Initial residual = 0, Final residual = 0, No Iterations 0
diagonal:  Solving for f10.air1, Initial residual = 0, Final residual = 0, No Iterations 0
diagonal:  Solving for f11.air1, Initial residual = 0, Final residual = 0, No Iterations 0
diagonal:  Solving for f12.air1, Initial residual = 0, Final residual = 0, No Iterations 0
diagonal:  Solving for f13.air1, Initial residual = 0, Final residual = 0, No Iterations 0
diagonal:  Solving for f14.air1, Initial residual = 0, Final residual = 0, No Iterations 0
diagonal:  Solving for f15.air1, Initial residual = 0, Final residual = 0, No Iterations 0
diagonal:  Solving for f16.air1, Initial residual = 0, Final residual = 0, No Iterations 0
diagonal:  Solving for f17.air1, Initial residual = 0, Final residual = 0, No Iterations 0
diagonal:  Solving for f18.air1, Initial residual = 0, Final residual = 0, No Iterations 0
diagonal:  Solving for f19.air1, Initial residual = 0, Final residual = 0, No Iterations 0
diagonal:  Solving for f20.air1, Initial residual = 0, Final residual = 0, No Iterations 0
diagonal:  Solving for f21.air1, Initial residual = 0, Final residual = 0, No Iterations 0
diagonal:  Solving for f22.air1, Initial residual = 0, Final residual = 0, No Iterations 0
diagonal:  Solving for f23.air1, Initial residual = 0, Final residual = 0, No Iterations 0
diagonal:  Solving for f24.air1, Initial residual = 0, Final residual = 0, No Iterations 0
diagonal:  Solving for f25.air1, Initial residual = 0, Final residual = 0, No Iterations 0
diagonal:  Solving for f26.air1, Initial residual = 0, Final residual = 0, No Iterations 0
diagonal:  Solving for f27.air1, Initial residual = 0, Final residual = 0, No Iterations 0
diagonal:  Solving for f28.air1, Initial residual = 0, Final residual = 0, No Iterations 0
diagonal:  Solving for f29.air1, Initial residual = 0, Final residual = 0, No Iterations 0
diagonal:  Solving for f30.air1, Initial residual = 0, Final residual = 0, No Iterations 0
diagonal:  Solving for f31.air1, Initial residual = 0, Final residual = 0, No Iterations 0
diagonal:  Solving for f32.air1, Initial residual = 0, Final residual = 0, No Iterations 0
diagonal:  Solving for f33.air1, Initial residual = 0, Final residual = 0, No Iterations 0
diagonal:  Solving for f34.air1, Initial residual = 0, Final residual = 0, No Iterations 0
diagonal:  Solving for f35.air1, Initial residual = 0, Final residual = 0, No Iterations 0
diagonal:  Solving for f36.air1, Initial residual = 0, Final residual = 0, No Iterations 0
diagonal:  Solving for f37.air1, Initial residual = 0, Final residual = 0, No Iterations 0
diagonal:  Solving for f38.air1, Initial residual = 0, Final residual = 0, No Iterations 0
diagonal:  Solving for f39.air1, Initial residual = 0, Final residual = 0, No Iterations 0
diagonal:  Solving for f40.air1, Initial residual = 0, Final residual = 0, No Iterations 0
diagonal:  Solving for f41.air1, Initial residual = 0, Final residual = 0, No Iterations 0
diagonal:  Solving for f42.air1, Initial residual = 0, Final residual = 0, No Iterations 0
diagonal:  Solving for f43.air1, Initial residual = 0, Final residual = 0, No Iterations 0
diagonal:  Solving for f44.air1, Initial residual = 0, Final residual = 0, No Iterations 0
diagonal:  Solving for f45.air1, Initial residual = 0, Final residual = 0, No Iterations 0
diagonal:  Solving for f46.air1, Initial residual = 0, Final residual = 0, No Iterations 0
diagonal:  Solving for f47.air2, Initial residual = 0, Final residual = 0, No Iterations 0
diagonal:  Solving for f48.air2, Initial residual = 0, Final residual = 0, No Iterations 0
diagonal:  Solving for f49.air2, Initial residual = 0, Final residual = 0, No Iterations 0
diagonal:  Solving for f50.air2, Initial residual = 0, Final residual = 0, No Iterations 0
diagonal:  Solving for f51.air2, Initial residual = 0, Final residual = 0, No Iterations 0
diagonal:  Solving for f52.air2, Initial residual = 0, Final residual = 0, No Iterations 0
diagonal:  Solving for f53.air2, Initial residual = 0, Final residual = 0, No Iterations 0
diagonal:  Solving for f54.air2, Initial residual = 0, Final residual = 0, No Iterations 0
diagonal:  Solving for f55.air2, Initial residual = 0, Final residual = 0, No Iterations 0
diagonal:  Solving for f56.air3, Initial residual = 0, Final residual = 0, No Iterations 0
diagonal:  Solving for f57.air3, Initial residual = 0, Final residual = 0, No Iterations 0
diagonal:  Solving for f58.air3, Initial residual = 0, Final residual = 0, No Iterations 0
diagonal:  Solving for f59.air3, Initial residual = 0, Final residual = 0, No Iterations 0
diagonal:  Solving for f60.air3, Initial residual = 0, Final residual = 0, No Iterations 0
diagonal:  Solving for f61.air3, Initial residual = 0, Final residual = 0, No Iterations 0
diagonal:  Solving for f62.air3, Initial residual = 0, Final residual = 0, No Iterations 0
diagonal:  Solving for f63.air3, Initial residual = 0, Final residual = 0, No Iterations 0
diagonal:  Solving for f64.air3, Initial residual = 0, Final residual = 0, No Iterations 0
diagonal:  Solving for f65.air3, Initial residual = 0, Final residual = 0, No Iterations 0
diagonal:  Solving for f66.air3, Initial residual = 0, Final residual = 0, No Iterations 0
diagonal:  Solving for f67.air3, Initial residual = 0, Final residual = 0, No Iterations 0
diagonal:  Solving for f68.air3, Initial residual = 0, Final residual = 0, No Iterations 0
diagonal:  Solving for f69.air3, Initial residual = 0, Final residual = 0, No Iterations 0
diagonal:  Solving for f70.air3, Initial residual = 0, Final residual = 0, No Iterations 0
bubbles sizeGroup phase fraction first, last = 1.15659e-13 1.01527e-31
air1 sizeGroups-sum volume fraction, min, max = 1 1 1
air1 Sauter mean diameter, min, max = 0.66665 0.66665 0.66665
air2 sizeGroups-sum volume fraction, min, max = 1 1 1
air2 Sauter mean diameter, min, max = 1.05841 1.05841 1.05841
air3 sizeGroups-sum volume fraction, min, max = 1 1 1
air3 Sauter mean diameter, min, max = 1.7313 1.7313 1.7313
Constructing momentum equations
diagonal:  Solving for p_rgh, Initial residual = 0, Final residual = 0, No Iterations 0
Time = 10s

ExecutionTime = 30.2994 s  ClockTime = 44 s

End

