/*---------------------------------------------------------------------------*\
  =========                 |
  \\      /  F ield         | OpenFOAM: The Open Source CFD Toolbox
   \\    /   O peration     | Website:  https://openfoam.org
    \\  /    A nd           | Version:  12
     \\/     M anipulation  |
\*---------------------------------------------------------------------------*/
Build  : 12-cc05c1b03c38
Exec   : foamPostProcess -func 
    populationBalanceInitialDistributionFs
    (
        phase=air1,
        initialDistributionFile="constant/initialDistribution.air1"
    )
    
Date   : Oct 10 2024
Time   : 23:15:01
Host   : "DESKTOP-KBPC6IC"
PID    : 4426
I/O    : uncollated
Case   : /home/as/openfoam/OpenFOAM-12/test/multiphaseEuler/populationBalance/coalescence
nProcs : 1
sigFpe : Enabling floating point exception trapping (FOAM_SIGFPE).
fileModificationChecking : Monitoring run-time modified files using timeStampMaster (fileModificationSkew 10)
allowSystemOperations : Allowing user-supplied system call operations

// * * * * * * * * * * * * * * * * * * * * * * * * * * * * * * * * * * * * * //
Create time

Create mesh for time = 0

Using dynamicCode for coded populationBalanceInitialDistributionFs_phase_air1_initialDistributionFile_constantinitialDistribution_air1_ at line 4 in "/home/as/openfoam/OpenFOAM-12/test/multiphaseEuler/populationBalance/coalescence/system/functions/populationBalanceInitialDistributionFs"
Creating new library in "dynamicCode/populationBalanceInitialDistributionFs_phase_air1_initialDistributionFile_constantinitialDistribution_air1_/platforms/linux64GccDPInt32Opt/lib/libpopulationBalanceInitialDistributionFs_phase_air1_initialDistributionFile_constantinitialDistribution_air1__12c65017761110a27f53232586fc8ac3bc5d226d.so"
"/home/as/openfoam/OpenFOAM-12/etc/codeTemplates/dynamicCode/codedFunctionObjectTemplate.C" "/home/as/openfoam/OpenFOAM-12/test/multiphaseEuler/populationBalance/coalescence/dynamicCode/populationBalanceInitialDistributionFs_phase_air1_initialDistributionFile_constantinitialDistribution_air1_/codedFunctionObjectTemplate.C"
"/home/as/openfoam/OpenFOAM-12/etc/codeTemplates/dynamicCode/codedFunctionObjectTemplate.H" "/home/as/openfoam/OpenFOAM-12/test/multiphaseEuler/populationBalance/coalescence/dynamicCode/populationBalanceInitialDistributionFs_phase_air1_initialDistributionFile_constantinitialDistribution_air1_/codedFunctionObjectTemplate.H"
Invoking "wmake -s libso /home/as/openfoam/OpenFOAM-12/test/multiphaseEuler/populationBalance/coalescence/dynamicCode/populationBalanceInitialDistributionFs_phase_air1_initialDistributionFile_constantinitialDistribution_air1_"
wmake libso /home/as/openfoam/OpenFOAM-12/test/multiphaseEuler/populationBalance/coalescence/dynamicCode/populationBalanceInitialDistributionFs_phase_air1_initialDistributionFile_constantinitialDistribution_air1_
make[3]: Entering directory '/home/as/openfoam/OpenFOAM-12/test/multiphaseEuler/populationBalance/coalescence/dynamicCode/populationBalanceInitialDistributionFs_phase_air1_initialDistributionFile_constantinitialDistribution_air1_'
    ln: ./lnInclude
make[3]: Leaving directory '/home/as/openfoam/OpenFOAM-12/test/multiphaseEuler/populationBalance/coalescence/dynamicCode/populationBalanceInitialDistributionFs_phase_air1_initialDistributionFile_constantinitialDistribution_air1_'
make[3]: Entering directory '/home/as/openfoam/OpenFOAM-12/test/multiphaseEuler/populationBalance/coalescence/dynamicCode/populationBalanceInitialDistributionFs_phase_air1_initialDistributionFile_constantinitialDistribution_air1_'
    wmkdep: codedFunctionObjectTemplate.C
    Ctoo: codedFunctionObjectTemplate.C
    ld: /home/as/openfoam/OpenFOAM-12/test/multiphaseEuler/populationBalance/coalescence/dynamicCode/populationBalanceInitialDistributionFs_phase_air1_initialDistributionFile_constantinitialDistribution_air1_/../platforms/linux64GccDPInt32Opt/lib/libpopulationBalanceInitialDistributionFs_phase_air1_initialDistributionFile_constantinitialDistribution_air1__12c65017761110a27f53232586fc8ac3bc5d226d.so
make[3]: Leaving directory '/home/as/openfoam/OpenFOAM-12/test/multiphaseEuler/populationBalance/coalescence/dynamicCode/populationBalanceInitialDistributionFs_phase_air1_initialDistributionFile_constantinitialDistribution_air1_'
Time = 0s

Reading fields:


Executing functionObjects

End

