/*---------------------------------------------------------------------------*\
  =========                 |
  \\      /  F ield         | OpenFOAM: The Open Source CFD Toolbox
   \\    /   O peration     | Website:  https://openfoam.org
    \\  /    A nd           | Version:  12
     \\/     M anipulation  |
\*---------------------------------------------------------------------------*/
Build  : 12-cc05c1b03c38
Exec   : decomposePar -fileHandler collated
Date   : Oct 04 2024
Time   : 23:19:20
Host   : "DESKTOP-KBPC6IC"
PID    : 23685
I/O    : collated (maxThreadFileBufferSize 2e+09)
         Threading activated since maxThreadFileBufferSize > 0.
         Requires large enough buffer to collect all data or thread support 
         enabled in MPI. If thread support cannot be enabled, deactivate
         threading by setting maxThreadFileBufferSize to 0 in
         $FOAM_ETC/controlDict
Case   : /home/as/openfoam/OpenFOAM-12/test/IO/fileHandler
nProcs : 1
sigFpe : Enabling floating point exception trapping (FOAM_SIGFPE).
fileModificationChecking : Monitoring run-time modified files using timeStamp (fileModificationSkew 10)
allowSystemOperations : Allowing user-supplied system call operations

// * * * * * * * * * * * * * * * * * * * * * * * * * * * * * * * * * * * * * //
Create time

Calculating distribution of cells

Selecting decomposer simple

Finished decomposition in 0.001273 s

Calculating original mesh data

Distributing cells to processors

Distributing faces to processors

Distributing points to processors

Constructing processor meshes

Processor 0
    Number of cells = 384
    Number of faces shared with processor 1 = 72
    Number of processor patches = 1
    Number of processor faces = 72
    Number of boundary faces = 840

Processor 1
    Number of cells = 384
    Number of faces shared with processor 0 = 72
    Number of faces shared with processor 2 = 64
    Number of processor patches = 2
    Number of processor faces = 136
    Number of boundary faces = 784

Processor 2
    Number of cells = 384
    Number of faces shared with processor 1 = 64
    Number of faces shared with processor 3 = 72
    Number of processor patches = 2
    Number of processor faces = 136
    Number of boundary faces = 784

Processor 3
    Number of cells = 384
    Number of faces shared with processor 2 = 72
    Number of processor patches = 1
    Number of processor faces = 72
    Number of boundary faces = 840

Number of processor faces = 208
Max number of cells = 384 (0% above average 384)
Max number of processor patches = 2 (33.3333% above average 1.5)
Max number of faces between processors = 136 (30.7692% above average 104)

Time = 0s

Decomposing FV fields

    Decomposing volScalarFields

        p

    Decomposing volVectorFields

        U

Decomposing point fields

    (no point fields)

End

