/*---------------------------------------------------------------------------*\
  =========                 |
  \\      /  F ield         | OpenFOAM: The Open Source CFD Toolbox
   \\    /   O peration     | Website:  https://openfoam.org
    \\  /    A nd           | Version:  12
     \\/     M anipulation  |
\*---------------------------------------------------------------------------*/
Build  : 12-cc05c1b03c38
Exec   : reconstructPar -latestTime -fileHandler collated
Date   : Oct 15 2024
Time   : 05:52:24
Host   : "DESKTOP-KBPC6IC"
PID    : 211986
I/O    : collated (maxThreadFileBufferSize 2e+09)
         Threading activated since maxThreadFileBufferSize > 0.
         Requires large enough buffer to collect all data or thread support 
         enabled in MPI. If thread support cannot be enabled, deactivate
         threading by setting maxThreadFileBufferSize to 0 in
         $FOAM_ETC/controlDict
         IO nodes:
             "DESKTOP-KBPC6IC.211986"
Case   : /home/as/openfoam/OpenFOAM-12/test/IO/fileHandler
nProcs : 1
sigFpe : Enabling floating point exception trapping (FOAM_SIGFPE).
fileModificationChecking : Monitoring run-time modified files using timeStamp (fileModificationSkew 10)
allowSystemOperations : Allowing user-supplied system call operations

// * * * * * * * * * * * * * * * * * * * * * * * * * * * * * * * * * * * * * //
Create time

Time = 0.0002s

Reconstructing FV fields

    Reconstructing volScalarField::Internals

        cloud:UCoeff

    Reconstructing volVectorField::Internals

        cloud:UTrans

    Reconstructing volScalarFields

        p

    Reconstructing volVectorFields

        U

    Reconstructing surfaceScalarFields

        phi

Reconstructing point fields

    (no point fields)

Reconstructing lagrangian fields for cloud cloud

    Reconstructing lagrangian labelFields

        origProcId
        origId
        typeId
        active

    Reconstructing lagrangian scalarFields

        d
        dTarget
        nParticle
        rho
        age
        tTurb

    Reconstructing lagrangian vectorFields

        UTurb
        U

Collecting uniform files

End

