/*---------------------------------------------------------------------------*\
  =========                 |
  \\      /  F ield         | OpenFOAM: The Open Source CFD Toolbox
   \\    /   O peration     | Website:  https://openfoam.org
    \\  /    A nd           | Version:  12
     \\/     M anipulation  |
\*---------------------------------------------------------------------------*/
Build  : 12-cc05c1b03c38
Exec   : foamRun -parallel -fileHandler collated
Date   : Oct 10 2024
Time   : 23:10:23
Host   : "DESKTOP-KBPC6IC"
PID    : 27312
I/O    : collated (maxThreadFileBufferSize 2e+09)
         Threading activated since maxThreadFileBufferSize > 0.
         Requires large enough buffer to collect all data or thread support 
         enabled in MPI. If thread support cannot be enabled, deactivate
         threading by setting maxThreadFileBufferSize to 0 in
         $FOAM_ETC/controlDict
         IO nodes:
             "DESKTOP-KBPC6IC.27312"
             "DESKTOP-KBPC6IC.27314"
Case   : /home/as/openfoam/OpenFOAM-12/test/IO/fileHandler
nProcs : 4
Slaves : 
3
(
"DESKTOP-KBPC6IC.27313"
"DESKTOP-KBPC6IC.27314"
"DESKTOP-KBPC6IC.27315"
)

Pstream initialised with:
    floatTransfer      : false
    nProcsSimpleSum    : 0
    commsType          : nonBlocking
    polling iterations : 0
sigFpe : Enabling floating point exception trapping (FOAM_SIGFPE).
fileModificationChecking : Monitoring run-time modified files using timeStamp (fileModificationSkew 10)
allowSystemOperations : Allowing user-supplied system call operations

// * * * * * * * * * * * * * * * * * * * * * * * * * * * * * * * * * * * * * //
Create time

Create mesh for time = 0.00015

Selecting solver incompressibleFluid
Selecting viscosity model constant
Selecting turbulence model type laminar
Selecting laminar stress model Stokes
No MRF models present

Courant Number mean: 0 max: 0
Creating fvModels from "constant/fvModels"

Selecting finite volume model type clouds
    Name: clouds
Selecting parcelCloud cloud
Constructing particle forces
    Selecting particle force sphereDrag
    Selecting particle force gravity
Constructing cloud functions
    none
Constructing particle injection models
Creating injector: model1
Selecting injection model manualInjection
    Constructing 3-D injection
Selecting distribution type fixedValue
    min/average/max value = 0.006/0.006/0.006
Selecting dispersion model none
Selecting patch interaction model none
Selecting stochastic collision model none
Selecting surface film model none
Selecting U integration scheme Euler

PIMPLE: No convergence criteria found


PIMPLE: Operating solver in transient mode with 1 outer corrector
PIMPLE: Operating solver in PISO mode



Starting time loop

Courant Number mean: 0 max: 0
Time = 0.0002s


Solving 3-D cloud cloud
Cloud: cloud
    Current number of parcels       = 71
    Current mass in system          = 0.00774083
    Linear momentum                 = (0 -1.51686e-05 0)
   |Linear momentum|                = 1.51686e-05
    Linear kinetic energy           = 1.48619e-08
    model1:
        number of parcels added     = 71
        mass introduced             = 0.00774083

smoothSolver:  Solving for Ux, Initial residual = 0, Final residual = 0, No Iterations 0
smoothSolver:  Solving for Uy, Initial residual = 0, Final residual = 0, No Iterations 0
smoothSolver:  Solving for Uz, Initial residual = 0, Final residual = 0, No Iterations 0
GAMG:  Solving for p, Initial residual = 0, Final residual = 0, No Iterations 0
time step continuity errors : sum local = 0, global = 0
GAMG:  Solving for p, Initial residual = 0, Final residual = 0, No Iterations 0
time step continuity errors : sum local = 0, global = 0, cumulative = 0
ExecutionTime = 0.38355 s  ClockTime = 0 s

End

Finalising parallel run
